Version 4
SHEET 1 2076 996
WIRE -288 208 -288 192
WIRE -624 272 -688 272
WIRE -560 272 -624 272
WIRE -416 272 -560 272
WIRE -688 288 -688 272
WIRE -288 288 -288 272
WIRE -192 288 -288 288
WIRE -160 288 -192 288
WIRE -416 304 -416 272
WIRE -288 304 -288 288
WIRE -560 368 -560 272
WIRE -528 368 -560 368
WIRE 208 368 -176 368
WIRE -688 384 -688 368
WIRE -128 464 -176 464
WIRE -96 464 -128 464
WIRE -96 480 -96 464
WIRE -832 560 -944 560
WIRE -576 560 -832 560
WIRE -528 560 -576 560
WIRE -96 560 -96 544
WIRE -96 560 -176 560
WIRE -16 560 -96 560
WIRE 64 560 -16 560
WIRE 208 560 208 368
WIRE 208 560 144 560
WIRE 256 560 208 560
WIRE 416 560 256 560
WIRE 624 560 416 560
WIRE -944 576 -944 560
WIRE -832 576 -832 560
WIRE 416 592 416 560
WIRE 624 592 624 560
WIRE 208 608 208 560
WIRE -576 656 -672 656
WIRE -528 656 -576 656
WIRE -128 656 -176 656
WIRE -96 656 -128 656
WIRE -944 672 -944 640
WIRE -832 672 -832 656
WIRE -96 672 -96 656
WIRE -672 704 -672 656
WIRE 208 704 208 672
WIRE 416 704 416 672
WIRE 624 704 624 672
WIRE -576 752 -608 752
WIRE -528 752 -576 752
WIRE -160 752 -160 288
WIRE -160 752 -176 752
WIRE -96 752 -96 736
WIRE -672 800 -672 784
WIRE -352 832 -352 816
FLAG -352 832 0
FLAG -688 384 0
FLAG 208 704 0
FLAG 416 704 0
FLAG 256 560 OUT
FLAG -624 272 IN
FLAG -944 672 0
FLAG -832 672 0
FLAG -288 192 0
FLAG 624 704 0
FLAG -96 752 0
FLAG -128 656 ITH
FLAG -128 464 BST
FLAG -192 288 VCC
FLAG -576 752 VCC
FLAG -576 560 SET
FLAG -672 800 0
FLAG -576 656 FREQ
FLAG -16 560 SW
SYMBOL voltage -688 272 R0
WINDOW 123 0 0 Left 2
WINDOW 39 0 0 Left 2
WINDOW 0 49 47 Left 2
WINDOW 3 40 75 Left 2
SYMATTR InstName V1
SYMATTR Value {Vin}
SYMBOL cap 192 608 R0
WINDOW 0 43 16 Left 2
WINDOW 3 43 43 Left 2
WINDOW 39 43 71 Left 2
SYMATTR InstName C1
SYMATTR Value {Cout}
SYMATTR SpiceLine Rser={Resr}
SYMBOL res 400 576 R0
SYMATTR InstName Rload
SYMATTR Value {Rload}
SYMBOL PowerProducts\\LTC3600 -352 560 R0
SYMATTR InstName U1
SYMBOL res -848 560 R0
SYMATTR InstName R1
SYMATTR Value {Rset}
SYMBOL cap -960 576 R0
SYMATTR InstName C2
SYMATTR Value {Css}
SYMBOL cap -304 208 R0
SYMATTR InstName C3
SYMATTR Value 1µ
SYMBOL ind 48 576 R270
WINDOW 0 -17 69 VLeft 2
WINDOW 3 -47 70 VLeft 2
WINDOW 39 -80 115 VLeft 2
SYMATTR InstName L1
SYMATTR Value {L}
SYMATTR SpiceLine Rser={Rdcr}
SYMBOL cap -112 480 R0
SYMATTR InstName C4
SYMATTR Value .1µ
SYMBOL current 624 592 R0
WINDOW 123 0 0 Left 2
WINDOW 39 24 108 Left 2
WINDOW 0 42 25 Left 2
WINDOW 3 45 58 Left 2
SYMATTR InstName Iload
SYMATTR Value PWL(0 0 1.3m 0 1.301m {Imax} 1.7m {Imax} 1.701m 0)
SYMBOL cap -112 672 R0
WINDOW 0 48 3 Left 2
WINDOW 3 49 29 Left 2
WINDOW 39 49 55 Left 2
SYMATTR InstName C5
SYMATTR Value {C1}
SYMATTR SpiceLine Rser={R1} Cpar={C2}
SYMBOL res -688 688 R0
WINDOW 0 -47 36 Left 2
WINDOW 3 -52 68 Left 2
SYMATTR InstName R2
SYMATTR Value {Rt}
TEXT 528 -824 Left 2 ;.tran 2m startup
TEXT 520 -592 Left 2 !.param\n+ Vin = 12\n+ Vout = 1.2\n+ Rt = 36.5k  ; fsw = 1MHz\n+ Rset = {Vout/50u}\n+ Css = 5n; (smaller soft-start capacitor than DC1617A)\n+ Imin = 100m\n+ Imax = 1.4\n+ Rload = {Vout/Imin}\n+ L = 2.2u ; Vishay IHLP-2020CZ-01 series\n+ Rdcr = 29.2m\n+ Cout = 47u ; 47uF  under <1.8V DC bias (drops 15% for 3.3V)\n+ Resr = 3m\n+ R1 = 56k   ; Mid-band gain = gmEA*R1 = 31.0dB\n+ C1 = 68p    ; fz = 41.8kHz\n+ C2 = 1f       ; not loaded
TEXT 464 752 Left 2 ;Copy one of the following into the PWL statement:\n * Current Pulse: PWL(0 0 1.3m 0 1.301m {Imax} 1.7m {Imax} 1.701m 0)\n * Current Step: PWL(0 0 1m 0 1.001m {Imax})
TEXT 528 -728 Left 2 !.tran 0 2m 1m startup
TEXT -832 -992 Left 4 ;LTC3600 DC1667A Evaluation Board Transient Analysis
TEXT -968 -848 Left 3 ;DC1667A board design parameters:\n  * Switching frequency fsw = 1MHz (Rt = 36.5kOhm)\n  * Vin = 4.5V to 15V\n  * Vout = 0.8V, 1.2V, 1.8V, 3.3V, or user selected\n  * Iout = 1.5A\n  * L = 2.2uH   ; Vishay IHLP-2020CZ-01 series\n  * Rdcr = 29.2m\n  * Cout = 47uF (6.3V, 1210, Taiyo Yuden JMK325BJ476MM-T)\n  * Resr = 3m (at 1MHz per Taiyo Yuden Component Selection tool) \n  * Compensation; series 56kOhms + 68pF\n \nAnalysis:\n  * Compensation; mid-band gain = gmEA*R1 = 31.0dB, fz = 41.8kHz\n  * dIout = Vout/(fsw*L)*(1-Vout/Vin)\n  * dVout = sqrt(L*(Iout+dIout/2)^2/Cout + Vout^2) - Vout\n    Vin   Vout   dIout    dVout\n   ------  -------  --------   ---------\n    15V  0.8V    344mA   78mV  (10%)\n            1.2V    502mA   58mV  (5%)\n            1.8V    720mA   44mV  (2.5%)\n            3.3V  1170mA   31mV  (1%)\n \n  The design target for dIout is typically Iout/3 = 500mA.\n  The design target for dVout is typically 5% of Vout.\n  The DC1667A components are appropriate for a 1.2V supply.
TEXT -776 -920 Left 3 ;10/18/2012 D. W. Hawkins (dwh@ovro.caltech.edu)
TEXT 448 -992 Left 3 ;Transient analysis:
TEXT 440 -648 Left 3 ;Design parameters:
TEXT 504 -936 Left 2 ;Use CTRL+right-mouse-click to (un)comment\none of these .tran commands
TEXT 504 -864 Left 2 ;Transient response from time = 0
TEXT 504 -776 Left 2 ;Transient response from time = 1ms
RECTANGLE Normal 360 112 -1056 -1048
RECTANGLE Normal 1272 112 400 -1048
RECTANGLE Normal 1272 992 -1056 136
