Version 4
SHEET 1 3608 1924
WIRE -1328 -32 -1424 -32
WIRE -1248 -32 -1328 -32
WIRE -1200 -32 -1248 -32
WIRE -1024 -32 -1200 -32
WIRE -736 -32 -1024 -32
WIRE -640 -32 -688 -32
WIRE -592 -32 -640 -32
WIRE -1424 -16 -1424 -32
WIRE -1200 -16 -1200 -32
WIRE -1024 -16 -1024 -32
WIRE -736 -16 -736 -32
WIRE -592 -16 -592 -32
WIRE -848 32 -864 32
WIRE -352 32 -464 32
WIRE -224 32 -272 32
WIRE -80 32 -224 32
WIRE 48 32 -80 32
WIRE 224 32 48 32
WIRE 400 32 224 32
WIRE 480 32 400 32
WIRE 576 32 480 32
WIRE 48 48 48 32
WIRE 224 48 224 32
WIRE 400 48 400 32
WIRE 576 48 576 32
WIRE -1424 80 -1424 64
WIRE -1200 80 -1200 48
WIRE -1024 96 -1024 64
WIRE -848 96 -1024 96
WIRE -432 96 -464 96
WIRE -384 96 -432 96
WIRE -224 96 -384 96
WIRE -224 112 -224 96
WIRE 48 144 48 112
WIRE 224 144 224 112
WIRE 400 144 400 128
WIRE 576 144 576 128
WIRE -912 160 -976 160
WIRE -848 160 -912 160
WIRE -416 160 -464 160
WIRE -224 208 -224 192
WIRE -848 224 -864 224
WIRE -416 224 -416 160
WIRE -416 224 -464 224
WIRE -864 288 -864 224
WIRE -848 288 -864 288
WIRE -224 288 -464 288
WIRE -80 288 -80 32
WIRE -80 288 -224 288
WIRE -960 352 -976 352
WIRE -848 352 -880 352
WIRE -448 352 -464 352
WIRE -848 416 -864 416
WIRE -448 416 -464 416
WIRE 112 448 -32 448
WIRE 208 448 112 448
WIRE 256 448 208 448
WIRE 544 448 480 448
WIRE 592 448 544 448
WIRE -880 480 -912 480
WIRE -848 480 -880 480
WIRE -448 480 -464 480
WIRE -32 496 -32 448
WIRE 112 496 112 448
WIRE 208 528 208 512
WIRE 256 528 208 528
WIRE 512 528 480 528
WIRE 544 528 512 528
WIRE 592 528 544 528
WIRE -736 560 -736 544
WIRE -576 560 -576 544
WIRE 208 576 208 528
WIRE -32 608 -32 576
WIRE 112 608 112 576
WIRE 256 608 112 608
WIRE 512 608 512 528
WIRE 512 608 480 608
WIRE -1248 672 -1248 -32
WIRE -1200 672 -1248 672
WIRE -656 672 -1200 672
WIRE -1200 688 -1200 672
WIRE -656 688 -656 672
WIRE -848 736 -864 736
WIRE -416 736 -416 224
WIRE -416 736 -464 736
WIRE -1200 784 -1200 752
WIRE -1024 800 -1024 96
WIRE -848 800 -1024 800
WIRE -352 800 -464 800
WIRE -224 800 -224 288
WIRE -224 800 -272 800
WIRE -912 864 -976 864
WIRE -848 864 -912 864
WIRE -384 864 -384 96
WIRE -384 864 -464 864
WIRE -848 928 -864 928
WIRE -448 928 -464 928
WIRE -864 992 -864 928
WIRE -848 992 -864 992
WIRE -448 992 -464 992
WIRE -960 1056 -976 1056
WIRE -848 1056 -880 1056
WIRE -432 1056 -464 1056
WIRE -400 1056 -432 1056
WIRE -912 1120 -976 1120
WIRE -848 1120 -912 1120
WIRE -448 1120 -464 1120
WIRE -736 1200 -736 1184
WIRE -576 1200 -576 1184
FLAG -1328 -32 IN
FLAG -1424 80 0
FLAG 48 144 0
FLAG 224 144 0
FLAG 400 144 0
FLAG -1200 80 0
FLAG 576 144 0
FLAG -736 560 0
FLAG -576 560 0
FLAG -224 208 0
FLAG -976 352 0
FLAG -976 480 0
FLAG -912 160 COMP
FLAG -432 96 FB
FLAG -880 480 SS
FLAG -448 352 0
FLAG 480 32 OUT
FLAG -1200 784 0
FLAG 208 576 0
FLAG -640 -32 CLK0
FLAG -912 1120 CLK180
FLAG 544 528 CLK180
FLAG 544 448 CLK0
FLAG -976 1056 0
FLAG -912 864 COMP
FLAG -736 1200 0
FLAG -576 1200 0
FLAG -432 1056 SS
FLAG -32 608 0
SYMBOL voltage -1424 -32 R0
WINDOW 0 47 30 Left 2
WINDOW 3 40 58 Left 2
WINDOW 123 0 0 Left 2
WINDOW 39 43 90 Left 2
SYMATTR InstName Vin
SYMATTR Value {Vin}
SYMATTR SpiceLine Rser=10m
SYMBOL cap 32 48 R0
WINDOW 39 -45 -67 Left 2
WINDOW 0 -10 -128 Left 2
WINDOW 3 -17 -98 Left 2
WINDOW 40 -36 -38 Left 2
SYMATTR SpiceLine Rser={Resr2}
SYMATTR InstName Cout2
SYMATTR Value {Cout2}
SYMATTR SpiceLine2 m={Mout2}
SYMBOL polcap 208 48 R0
WINDOW 39 -56 -69 Left 2
WINDOW 0 -17 -128 Left 2
WINDOW 3 -24 -99 Left 2
WINDOW 40 -45 -36 Left 2
SYMATTR SpiceLine Rser={Resr1}
SYMATTR InstName Cout1
SYMATTR Value {Cout1}
SYMATTR SpiceLine2 m={Mout1}
SYMBOL res 384 32 R0
WINDOW 0 46 46 Left 2
SYMATTR InstName Rload
SYMATTR Value {Rload}
SYMBOL cap -1216 -16 R0
WINDOW 3 49 37 Left 2
WINDOW 0 48 12 Left 2
WINDOW 39 49 65 Left 2
SYMATTR Value 40
SYMATTR InstName Cin1
SYMATTR SpiceLine Rser=10m
SYMBOL current 576 48 R0
WINDOW 3 -466 176 Left 2
WINDOW 123 0 0 Left 2
WINDOW 39 0 0 Left 2
WINDOW 0 42 32 Left 2
SYMATTR Value PWL(0 0 1m 0 1.001m {Istep} 1.4m {Istep} 1.401m 0)
SYMATTR InstName Istep
SYMBOL res -240 96 R0
WINDOW 0 54 43 Left 2
WINDOW 3 53 71 Left 2
SYMATTR InstName Rset
SYMATTR Value 20K
SYMBOL res -864 368 M270
WINDOW 0 32 56 VTop 2
WINDOW 3 0 56 VBottom 2
SYMATTR InstName R2
SYMATTR Value 392K
SYMBOL res -1040 -32 R0
WINDOW 0 45 47 Left 2
SYMATTR InstName R1
SYMATTR Value 100K
SYMBOL cap -912 464 R90
WINDOW 0 0 32 VBottom 2
WINDOW 3 32 32 VTop 2
SYMATTR InstName Css
SYMATTR Value .002
SYMBOL PowerProducts\\LTM4601A -656 240 R0
SYMATTR InstName U2
SYMBOL voltage -368 32 R270
WINDOW 0 32 56 VTop 2
WINDOW 3 34 96 VBottom 2
SYMATTR InstName L1
SYMATTR Value 0
SYMBOL cap -240 32 R0
WINDOW 0 55 25 Left 2
WINDOW 3 49 53 Left 2
SYMATTR InstName CFF
SYMATTR Value {CFF}
SYMBOL PowerProducts\\LTM4601A-1 -656 944 R0
SYMATTR InstName U1
SYMBOL cap -1216 688 R0
WINDOW 3 49 37 Left 2
WINDOW 0 48 12 Left 2
WINDOW 39 49 65 Left 2
SYMATTR Value 40
SYMATTR InstName Cin2
SYMATTR SpiceLine Rser=10m
SYMBOL SpecialFunctions\\LTC6908-1 368 528 R0
SYMATTR InstName U3
SYMBOL cap 192 448 R0
WINDOW 0 -37 31 Left 2
WINDOW 3 -37 56 Left 2
SYMATTR InstName C1
SYMATTR Value 1
SYMBOL res 96 480 R0
WINDOW 0 -76 45 Left 2
WINDOW 3 -73 69 Left 2
SYMATTR InstName Rfreq
SYMATTR Value 118K
SYMATTR SpiceLine tol=1 pwr=0.1
SYMBOL res -864 1072 M270
WINDOW 0 32 56 VTop 2
WINDOW 3 0 56 VBottom 2
SYMATTR InstName R3
SYMATTR Value 392K
SYMBOL voltage -368 800 R270
WINDOW 0 32 56 VTop 2
WINDOW 3 34 96 VBottom 2
SYMATTR InstName L2
SYMATTR Value 0
SYMBOL voltage -32 480 R0
WINDOW 0 -88 42 Left 2
WINDOW 3 -53 72 Left 2
SYMATTR InstName VCC
SYMATTR Value 5
TEXT 504 -32 Left 2 ;1.5V @ 12A
TEXT 352 184 Left 2 ;static load
TEXT 528 184 Left 2 ;load step
TEXT -1224 -336 Left 4 ;LTM4601 uModule Example #2
TEXT -1328 -200 Left 3 ;This dual-phase power supply converts 12V to 1.5V @ 24A.
TEXT -1280 -272 Left 3 ;6/24/2013 D. W. Hawkins (dwh@ovro.caltech.edu)
TEXT -64 848 Left 2 !.param\n+ Vin = 12\n+ Vout = 1.5\n+ Iout = 24\n+ Irload = 2     ; Resistive load current\n+ Istep = (Iout-Irload)   ; Load step\n+ Rload = (Vout/Irload)\n+ Cout1 = 330u\n+ Resr1 = 6m\n+ Mout1 = 2\n+ Cout2 = 100u\n+ Resr2 = 2m\n+ Mout2 = 2\n+ CFF = 680p   ; Feed-forward compensation
TEXT -104 800 Left 3 ;Parameters:
TEXT -200 -296 Left 2 ;Transient response from time = 0
TEXT -200 -208 Left 2 ;Transient response from time = 0.7ms to 1.7ms
TEXT -224 -344 Left 3 ;Analysis:
TEXT -168 -256 Left 2 !;.tran 1.7m startup
TEXT -168 -168 Left 2 !.tran 0 1.7m 0.7m startup
TEXT 72 360 Left 3 ;Clock Phase Generator
TEXT 440 656 Left 1 ;Modulation Disabled\n   (MOD = OUT2)
TEXT -32 424 Left 1 ;Rfreq = 118k for fsw = 850kHz
TEXT -80 656 Left 1 ;If VCC is derived from LTM4601A INTVCC,\nthen add an RC filter, as INTVCC is noisy
RECTANGLE Normal 728 1304 -1496 -440
RECTANGLE Normal -360 -120 -1392 -384
RECTANGLE Normal 640 1272 -160 752
RECTANGLE Normal 592 -120 -272 -384
RECTANGLE Normal 640 712 -160 320
