Version 4
SHEET 1 3608 1924
WIRE -1264 32 -1360 32
WIRE -1168 32 -1264 32
WIRE -976 32 -1168 32
WIRE -736 32 -976 32
WIRE -1360 48 -1360 32
WIRE -1168 48 -1168 32
WIRE -976 48 -976 32
WIRE -736 48 -736 32
WIRE -400 96 -464 96
WIRE -96 96 -320 96
WIRE 48 96 -96 96
WIRE 224 96 48 96
WIRE 400 96 224 96
WIRE 576 96 400 96
WIRE 48 112 48 96
WIRE 224 112 224 96
WIRE 400 112 400 96
WIRE 576 112 576 96
WIRE -1360 144 -1360 128
WIRE -1168 144 -1168 112
WIRE -976 160 -976 128
WIRE -848 160 -976 160
WIRE -432 160 -464 160
WIRE -384 160 -432 160
WIRE -272 160 -384 160
WIRE -96 160 -96 96
WIRE -384 176 -384 160
WIRE -272 176 -272 160
WIRE -96 192 -96 160
WIRE 48 208 48 176
WIRE 224 208 224 176
WIRE 400 208 400 192
WIRE 576 208 576 192
WIRE -912 224 -960 224
WIRE -848 224 -912 224
WIRE -432 224 -464 224
WIRE -384 272 -384 256
WIRE -848 288 -864 288
WIRE -432 288 -432 224
WIRE -432 288 -464 288
WIRE -96 304 -96 272
WIRE -864 352 -864 288
WIRE -848 352 -864 352
WIRE -272 352 -272 240
WIRE -272 352 -464 352
WIRE -96 352 -96 304
WIRE -96 352 -272 352
WIRE -960 416 -976 416
WIRE -848 416 -880 416
WIRE -400 416 -464 416
WIRE -400 432 -400 416
WIRE -848 480 -864 480
WIRE -448 480 -464 480
WIRE -880 544 -912 544
WIRE -848 544 -880 544
WIRE -448 544 -464 544
WIRE -736 624 -736 608
WIRE -576 624 -576 608
FLAG -1264 32 IN
FLAG -1360 144 0
FLAG 48 208 0
FLAG 224 208 0
FLAG 400 208 0
FLAG -1168 144 0
FLAG 576 208 0
FLAG -96 160 B
FLAG -96 304 A
FLAG -736 624 0
FLAG -576 624 0
FLAG -384 272 0
FLAG -976 416 0
FLAG -976 544 0
FLAG -912 224 C
FLAG -432 160 FB
FLAG -880 544 SS
FLAG -400 432 0
SYMBOL voltage -1360 32 R0
WINDOW 0 47 30 Left 2
WINDOW 3 40 58 Left 2
WINDOW 123 0 0 Left 2
WINDOW 39 43 90 Left 2
SYMATTR InstName Vin
SYMATTR Value {Vin}
SYMATTR SpiceLine Rser=10m
SYMBOL cap 32 112 R0
WINDOW 39 -45 -67 Left 2
WINDOW 0 -10 -128 Left 2
WINDOW 3 -17 -98 Left 2
WINDOW 40 -36 -38 Left 2
SYMATTR SpiceLine Rser={Resr2}
SYMATTR InstName Cout2
SYMATTR Value {Cout2}
SYMATTR SpiceLine2 m={Mout2}
SYMBOL polcap 208 112 R0
WINDOW 39 -56 -69 Left 2
WINDOW 0 -17 -128 Left 2
WINDOW 3 -24 -99 Left 2
WINDOW 40 -45 -36 Left 2
SYMATTR SpiceLine Rser={Resr1}
SYMATTR InstName Cout1
SYMATTR Value {Cout1}
SYMATTR SpiceLine2 m={Mout1}
SYMBOL res 384 96 R0
WINDOW 0 46 46 Left 2
SYMATTR InstName Rload
SYMATTR Value {Rload}
SYMBOL cap -1184 48 R0
WINDOW 3 49 37 Left 2
WINDOW 0 48 12 Left 2
WINDOW 39 49 65 Left 2
SYMATTR Value 40µ
SYMATTR InstName Cin
SYMATTR SpiceLine Rser=10m
SYMBOL current 576 112 R0
WINDOW 3 -271 173 Left 2
WINDOW 123 0 0 Left 2
WINDOW 39 0 0 Left 2
WINDOW 0 46 39 Left 2
SYMATTR Value PWL(0 0 800u 0 801u {Istep})
SYMATTR InstName Istep
SYMBOL VOLTAGE -96 288 R180
WINDOW 0 -77 105 Left 2
WINDOW 3 -423 -54 Left 2
SYMATTR InstName Vsine
SYMATTR Value SINE(0 {if(freq<10k,50m,5m)} {freq})
SYMBOL res -400 160 R0
SYMATTR InstName Rset
SYMATTR Value 103.5K
SYMBOL res -864 432 M270
WINDOW 0 32 56 VTop 2
WINDOW 3 0 56 VBottom 2
SYMATTR InstName R3
SYMATTR Value 392K
SYMBOL cap -912 528 R90
WINDOW 0 0 32 VBottom 2
WINDOW 3 32 32 VTop 2
SYMATTR InstName Css
SYMATTR Value .001µ
SYMBOL PowerProducts\\LTM4601A -656 304 R0
SYMATTR InstName U2
SYMBOL voltage -416 96 R270
WINDOW 0 32 56 VTop 2
WINDOW 3 34 96 VBottom 2
SYMATTR InstName L
SYMATTR Value 0
SYMBOL res -992 32 R0
WINDOW 0 45 47 Left 2
SYMATTR InstName R1
SYMATTR Value 100K
SYMBOL cap -288 176 R0
WINDOW 0 50 25 Left 2
WINDOW 3 41 53 Left 2
SYMATTR InstName CFF
SYMATTR Value {CFF}
TEXT 432 64 Left 2 ;1.5V @ 12A
TEXT 352 248 Left 2 ;static load
TEXT 528 248 Left 2 ;load step
TEXT -1152 -296 Left 4 ;LTM4601 uModule Example #3
TEXT -1296 -160 Left 3 ;This single-phase power supply converts 12V to 0.95V @ 12A.
TEXT -1208 -232 Left 3 ;6/24/2013 D. W. Hawkins (dwh@ovro.caltech.edu)
TEXT -200 568 Left 2 !.param\n+ freq = 10k\n+ Vin = 12\n+ Vout = 0.95\n+ Iout = 12\n+ Irload = 1     ; Resistive load current\n+ Istep = (Iout-Irload)   ; Load step\n+ Rload = (Vout/Irload)\n+ Cout1 = 330u\n+ Resr1 = 6m\n+ Mout1 = 3\n+ Cout2 = 100u\n+ Resr2 = 2m\n+ Mout2 = 1\n+ CFF = 330p ; Feed-forward compensation
TEXT -240 520 Left 3 ;Parameters:
TEXT -1320 816 Left 2 !.save V(a) V(b) V(c) I(L)\n.option plotwinsize=0  ; turn off waveform compression\n.option option_angle=degrees\n.option nomarch=1 ; do not generate plots until done\n \n.measure Aavg avg V(a)\n.measure Bavg avg V(b)\n.measure Cavg avg V(c)\n.measure Are avg  (V(a)-Aavg)*cos(360*time*Freq)\n.measure Aim avg -(V(a)-Aavg)*sin(360*time*Freq)\n.measure Bre avg  (V(b)-Bavg)*cos(360*time*Freq)\n.measure Bim avg -(V(b)-Bavg)*sin(360*time*Freq)\n.measure Cre avg  (V(c)-Cavg)*cos(360*time*Freq)\n.measure Cim avg -(V(c)-Cavg)*sin(360*time*Freq)\n.measure Gain_dB param 20*log10(hypot(Bre,Bim) / hypot(Are,Aim))\n.measure Phase param mod(atan2(Bim, Bre) - atan2(Aim, Are)+180,360)-180\n.measure Kco_dB param 20*log10(hypot(Bre,Bim) / hypot(Cre,Cim))\n.measure Kco_Phase param mod(atan2(Bim, Bre) - atan2(Cim, Cre)+180,360)-180\n.measure Kcomp_dB param 20*log10(hypot(Cre,Cim) / hypot(Are,Aim))\n.measure Kcomp_Phase param mod(atan2(Cim, Cre) - atan2(Aim, Are)+180,360)-180
TEXT -1344 752 Left 3 ;Gain and Phase Calculations:
TEXT -176 -224 Left 2 !;.tran 0 {if(freq<10k,1.5m+10/freq,2.5m} startup
TEXT -200 -256 Left 2 ;Transient response from time = 0
TEXT -200 -168 Left 2 ;Transient response from time = 1.5ms (after the load step has settled)
TEXT -176 -128 Left 2 !.tran 0 {if(freq<10k,1.5m+10/freq,2.5m} 1.5m startup
TEXT -224 -304 Left 3 ;Analysis:
TEXT -232 1256 Left 2 !;.step param freq list  1k 2k 3k 4k 5k 7k 10k 20k 30k 50k 70k 100k 200k 300k 500k 700k 1Meg
TEXT -248 1312 Left 2 ;Detailed response (the 100Hz and 300Hz measurements take a long time) (1 hour 30 minutes)
TEXT -232 1176 Left 2 !.step param freq list  1k 3k 10k 30k 100k 300k 1Meg
TEXT -248 1144 Left 2 ;Use this set of frequencies to get the coarse response reasonably quickly
TEXT -264 1096 Left 3 ;Frequency sweep:
TEXT -248 1224 Left 2 ;Use this set of frequencies for the detailed response (excluding the lowest frequencies)
TEXT -232 1344 Left 2 !;.step param freq list 100 300 1k 2k 3k 4k 5k 7k 10k 20k 30k 50k 70k 100k 200k 300k 500k 700k 1Meg
TEXT -424 320 Left 2 ;169k || 267k
LINE Normal -64 272 -32 320
RECTANGLE Normal 904 1448 -1448 -376
RECTANGLE Normal -352 -80 -1384 -344
RECTANGLE Normal 856 1008 -296 472
RECTANGLE Normal -344 1408 -1384 696
RECTANGLE Normal 592 -80 -272 -344
RECTANGLE Normal 856 1400 -296 1056
