Version 4
SHEET 1 2076 852
WIRE -80 144 -80 128
WIRE -352 208 -496 208
WIRE -208 208 -352 208
WIRE -496 224 -496 208
WIRE -144 224 -336 224
WIRE -80 224 -80 208
WIRE -80 224 -144 224
WIRE 48 224 -80 224
WIRE -208 240 -208 208
WIRE -80 240 -80 224
WIRE -352 304 -352 208
WIRE -320 304 -352 304
WIRE 496 304 32 304
WIRE -496 320 -496 304
WIRE 112 400 32 400
WIRE 176 400 112 400
WIRE 176 416 176 400
WIRE -512 496 -576 496
WIRE -464 496 -512 496
WIRE -320 496 -464 496
WIRE 176 496 176 480
WIRE 176 496 32 496
WIRE 256 496 176 496
WIRE 320 496 256 496
WIRE 496 496 496 304
WIRE 496 496 400 496
WIRE 592 496 496 496
WIRE 704 496 592 496
WIRE -576 512 -576 496
WIRE -464 512 -464 496
WIRE 704 528 704 496
WIRE 496 544 496 496
WIRE -336 592 -336 224
WIRE -320 592 -336 592
WIRE 48 592 48 224
WIRE 48 592 32 592
WIRE -576 608 -576 576
WIRE -464 608 -464 592
WIRE 496 640 496 608
WIRE 704 640 704 608
WIRE -336 688 -336 592
WIRE -320 688 -336 688
WIRE 48 688 48 592
WIRE 48 688 32 688
WIRE -144 768 -144 752
FLAG -144 768 0
FLAG -496 320 0
FLAG 496 640 0
FLAG 704 640 0
FLAG 592 496 OUT
FLAG -496 208 IN
FLAG -576 608 0
FLAG -464 608 0
FLAG -80 128 0
FLAG 256 496 SW
FLAG -512 496 VSET
FLAG -144 224 VCC
FLAG 112 400 BOOST
SYMBOL voltage -496 208 R0
WINDOW 0 43 46 Left 2
WINDOW 3 43 73 Left 2
SYMATTR InstName Vin
SYMATTR Value 12
SYMBOL cap 480 544 R0
WINDOW 0 58 2 Left 2
WINDOW 3 51 30 Left 2
WINDOW 39 41 59 Left 2
SYMATTR InstName Cout
SYMATTR Value {Cout}
SYMATTR SpiceLine Rser={Resr}
SYMBOL res 688 512 R0
WINDOW 3 41 68 Left 2
SYMATTR Value {Rload}
SYMATTR InstName Rload
SYMBOL PowerProducts\\LTC3600 -144 496 R0
SYMATTR InstName U1
SYMBOL res -480 496 R0
SYMATTR InstName R1
SYMATTR Value {Rset}
SYMBOL cap -592 512 R0
SYMATTR InstName C2
SYMATTR Value .002µ
SYMBOL cap -96 144 R0
SYMATTR InstName C3
SYMATTR Value 1µ
SYMBOL ind 304 512 R270
WINDOW 0 -17 60 VLeft 2
WINDOW 3 -47 70 VLeft 2
WINDOW 39 -80 128 VLeft 2
SYMATTR InstName L
SYMATTR Value {L}
SYMATTR SpiceLine Rser={Rdcr}
SYMBOL cap 160 416 R0
WINDOW 0 39 9 Left 2
WINDOW 3 40 36 Left 2
SYMATTR InstName C4
SYMATTR Value .1µ
TEXT 528 -824 Left 2 ;.tran 2.5m startup
TEXT 496 -632 Left 2 !.param\n+ Vout = 2.5\n+ Rset = {Vout/50u}\n+ Iout = 1\n+ Rload = (Vout/(Iout+1p))\n+ L = 3.3u ; Vishay IHLP-2525CZ-01 series\n+ Rdcr = 30m\n+ Cout = 26u ; TDK 47uF 0603 under 2.5V DC bias\n+ Resr = 1m
TEXT 528 -728 Left 2 !.tran 0 2.5m 1.5m startup
TEXT -752 -1000 Left 4 ;LTC3600 SMPS Efficiency Analysis
TEXT -968 -824 Left 3 ;The power supply is designed to convert 12V to 2.5V @ 1.5A.\n \nThe design parameters are:\n  * Switching frequency = 1MHz (Rset tied to INTVcc)\n  * Vin = 12V\n  * Vout = 2.5V +/- 5% (+/- 125mV)\n  * Iout = 1.5A\n  * dIout = 500mA (nominal)\n  * L = Vout/(f*dIout)*(1-Vout/Vin) = 4uH (nominal)\n  * Select from Vishay IHLP-2525CZ-01 series parts\n     - 4.7uH, 40mOhm, 5.5A rating\n     - 3.3uH, 30mOhm, 6A rating\n     - 2.2uH, 20mOhm, 8A rating\n    Select the 3.3uH part; lower losses, but slightly higher ripple current.\n    More ripple current can be tolerated because Cout has very low ESR,\n    resulting in low output ripple voltage.\n * dIout = Vout/(f*L)*(1-Vout/Vin) = 600mA\n * Cout(min) = L*(Iout+dIout/2)^2/((Vout+dVout)^2-Vout)^2 = 17uF\n * TDK C2012X5R0J476M 47uF 0603\n    The TDK SEAT tool shows that this part has a capacitance of 26uF under\n    a DC bias of 2.5V and an ESR of 1mOhm at 1MHz
TEXT -768 -920 Left 3 ;7/20/2012 D. W. Hawkins (dwh@ovro.caltech.edu)
TEXT 448 -992 Left 3 ;Transient analysis:
TEXT 440 -680 Left 3 ;Design parameters:
TEXT 448 -320 Left 3 ;Efficiency sweep:
TEXT 504 -936 Left 2 ;Use CTRL+right-mouse-click to (un)comment\none of these .tran commands
TEXT 504 -864 Left 2 ;Transient response from time = 0
TEXT 504 -776 Left 2 ;Transient response from time = 1.5ms
TEXT 496 -136 Left 2 !.include LTC3600_efficiency.meas
TEXT 496 -184 Left 2 !.step param Iout list 10m 100m 250m 500m 750m 1 1.25 1.5 1.75
TEXT 496 -216 Left 2 ;.step param Iout list 10m 1
TEXT 496 -88 Left 2 !.option plotwinsize=0  ; turn off waveform compression\n.option nomarch=1 ; do not generate plots until done
TEXT 504 88 Left 2 ;Efficiency sweep run-times (from the .log file);\n * 2-steps = 230s = 4 mins\n * 9-steps = 1080s = 18 mins
TEXT 496 -280 Left 2 ;Use right-mouse-click to (un)comment\none of these .step commands
RECTANGLE Normal 376 16 -1056 -1048
RECTANGLE Normal 1288 16 400 -1048
RECTANGLE Normal 1288 848 -1056 40
