Version 4
SHEET 1 2076 996
WIRE -288 208 -288 192
WIRE -560 272 -640 272
WIRE -416 272 -560 272
WIRE -640 288 -640 272
WIRE -288 288 -288 272
WIRE -288 288 -544 288
WIRE -160 288 -288 288
WIRE -416 304 -416 272
WIRE -288 304 -288 288
WIRE -560 368 -560 272
WIRE -528 368 -560 368
WIRE 208 368 -176 368
WIRE -640 384 -640 368
WIRE -128 464 -176 464
WIRE -128 480 -128 464
WIRE -672 560 -784 560
WIRE -528 560 -672 560
WIRE -128 560 -128 544
WIRE -128 560 -176 560
WIRE 16 560 -128 560
WIRE 208 560 208 368
WIRE 208 560 96 560
WIRE 256 560 208 560
WIRE 416 560 256 560
WIRE 624 560 416 560
WIRE -784 576 -784 560
WIRE -672 576 -672 560
WIRE 416 592 416 560
WIRE 624 592 624 560
WIRE 208 608 208 560
WIRE -544 656 -544 288
WIRE -528 656 -544 656
WIRE -160 656 -160 288
WIRE -160 656 -176 656
WIRE -784 672 -784 640
WIRE -672 672 -672 656
WIRE 208 704 208 672
WIRE 416 704 416 672
WIRE 624 704 624 672
WIRE -544 752 -544 656
WIRE -528 752 -544 752
WIRE -160 752 -160 656
WIRE -160 752 -176 752
WIRE -352 832 -352 816
FLAG -352 832 0
FLAG -640 384 0
FLAG 208 704 0
FLAG 416 704 0
FLAG 256 560 OUT
FLAG -640 272 IN
FLAG -784 672 0
FLAG -672 672 0
FLAG -288 192 0
FLAG 624 704 0
SYMBOL voltage -640 272 R0
SYMATTR InstName V1
SYMATTR Value 12
SYMBOL cap 192 608 R0
WINDOW 0 43 16 Left 2
WINDOW 3 43 43 Left 2
WINDOW 39 43 71 Left 2
SYMATTR InstName C1
SYMATTR Value {Cout}
SYMATTR SpiceLine Rser={Resr}
SYMBOL res 400 576 R0
SYMATTR InstName Rload
SYMATTR Value {Rload}
SYMBOL PowerProducts\\LTC3600 -352 560 R0
SYMATTR InstName U1
SYMBOL res -688 560 R0
SYMATTR InstName R1
SYMATTR Value {Rset}
SYMBOL cap -800 576 R0
SYMATTR InstName C2
SYMATTR Value .002µ
SYMBOL cap -304 208 R0
SYMATTR InstName C3
SYMATTR Value 1µ
SYMBOL ind 0 576 R270
WINDOW 0 -17 69 VLeft 2
WINDOW 3 -47 70 VLeft 2
WINDOW 39 -80 115 VLeft 2
SYMATTR InstName L1
SYMATTR Value {L}
SYMATTR SpiceLine Rser={Rdcr}
SYMBOL cap -144 480 R0
SYMATTR InstName C4
SYMATTR Value .1µ
SYMBOL current 624 592 R0
WINDOW 123 0 0 Left 2
WINDOW 39 24 108 Left 2
WINDOW 0 42 25 Left 2
WINDOW 3 45 58 Left 2
SYMATTR InstName Iload
SYMATTR Value PWL(0 0 1m 0 1.001m {Imax} 2m {Imax} 2.001m 0)
TEXT 528 -824 Left 2 !.tran 2.5m startup
TEXT 520 -592 Left 2 !.param\n+ Vout = 2.5\n+ Rset = {Vout/50u}\n+ Imin = 100m\n+ Imax = 1.4\n+ Rload = {Vout/Imin}\n+ L = 3.3u ; Vishay IHLP-2525CZ-01 series\n+ Rdcr = 30m\n+ Cout = 26u ; TDK 47uF 0603 under 2.5V DC bias\n+ Resr = 1m
TEXT 464 752 Left 2 ;Copy one of the following into the PWL statement:\n * Current Pulse: PWL(0 0 1m 0 1.001m {Imax} 2m {Imax} 2.001m 0)\n * Current Step: PWL(0 0 1m 0 1.001m {Imax})
TEXT 528 -728 Left 2 ;.tran 0 2.5m 1.5m steady startup
TEXT -752 -1000 Left 4 ;LTC3600 SMPS Transient Analysis
TEXT -968 -824 Left 3 ;The power supply is designed to convert 12V to 2.5V @ 1.5A.\n \nThe design parameters are:\n  * Switching frequency = 1MHz (Rset tied to INTVcc)\n  * Vin = 12V\n  * Vout = 2.5V +/- 5% (+/- 125mV)\n  * Iout = 1.5A\n  * dIout = 500mA (nominal)\n  * L = Vout/(f*dIout)*(1-Vout/Vin) = 4uH (nominal)\n  * Select from Vishay IHLP-2525CZ-01 series parts\n     - 4.7uH, 40mOhm, 5.5A rating\n     - 3.3uH, 30mOhm, 6A rating\n     - 2.2uH, 20mOhm, 8A rating\n    Select the 3.3uH part; lower losses, but slightly higher ripple current.\n    More ripple current can be tolerated because Cout has very low ESR,\n    resulting in low output ripple voltage.\n * dIout = Vout/(f*L)*(1-Vout/Vin) = 600mA\n * Cout(min) = L*(Iout+dIout/2)^2/((Vout+dVout)^2-Vout)^2 = 17uF\n * TDK C2012X5R0J476M 47uF 0603\n    The TDK SEAT tool shows that this part has a capacitance of 26uF under\n    a DC bias of 2.5V and an ESR of 1mOhm at 1MHz
TEXT -776 -920 Left 3 ;7/20/2012 D. W. Hawkins (dwh@ovro.caltech.edu)
TEXT 448 -992 Left 3 ;Transient analysis:
TEXT 440 -648 Left 3 ;Design parameters:
TEXT 504 -936 Left 2 ;Use CTRL+right-mouse-click to (un)comment\none of these .tran commands
TEXT 504 -864 Left 2 ;Transient response from time = 0
TEXT 504 -776 Left 2 ;Transient response from time = 1.5ms
RECTANGLE Normal 360 32 -1056 -1048
RECTANGLE Normal 1272 32 400 -1048
RECTANGLE Normal 1272 992 -1056 56
