Version 4
SHEET 1 2312 1060
WIRE 432 -96 -176 -96
WIRE -176 -16 -176 -96
WIRE -128 -16 -176 -16
WIRE -48 -16 -128 -16
WIRE 544 -16 400 -16
WIRE 752 -16 544 -16
WIRE -128 0 -128 -16
WIRE 544 0 544 -16
WIRE 752 0 752 -16
WIRE -128 80 -128 64
WIRE 496 80 400 80
WIRE 752 96 752 80
WIRE -176 176 -176 -16
WIRE -48 176 -176 176
WIRE 432 176 432 -32
WIRE 432 176 400 176
WIRE 464 176 432 176
WIRE 544 176 544 96
WIRE 544 176 528 176
WIRE 544 272 544 176
WIRE 544 272 400 272
WIRE 592 272 544 272
WIRE 704 272 672 272
WIRE 720 272 704 272
WIRE 816 272 800 272
WIRE 864 272 816 272
WIRE 976 272 864 272
WIRE 1072 272 976 272
WIRE 1232 272 1072 272
WIRE 544 288 544 272
WIRE 1232 288 1232 272
WIRE 976 304 976 272
WIRE 1072 304 1072 272
WIRE 864 336 864 272
WIRE -208 368 -256 368
WIRE -48 368 -144 368
WIRE 496 368 400 368
WIRE 976 384 976 368
WIRE 1072 384 1072 368
WIRE 1232 384 1232 368
WIRE 544 400 544 384
WIRE -160 464 -256 464
WIRE -48 464 -80 464
WIRE 864 464 864 416
WIRE 864 464 400 464
WIRE 864 480 864 464
WIRE -240 560 -256 560
WIRE -48 560 -176 560
WIRE 448 560 400 560
WIRE 544 560 448 560
WIRE 704 560 704 272
WIRE 704 560 624 560
WIRE 448 576 448 560
WIRE 864 576 864 560
WIRE -48 656 -80 656
WIRE 448 656 448 640
WIRE 448 656 400 656
WIRE 608 656 448 656
WIRE 816 656 816 272
WIRE 816 656 688 656
FLAG -80 656 0
FLAG 544 400 0
FLAG 1072 384 0
FLAG 1232 384 0
FLAG 864 576 0
FLAG 1232 272 OUT
FLAG -128 80 0
FLAG -256 560 0
FLAG -256 368 0
FLAG 752 96 0
FLAG 752 -16 IN
FLAG -256 464 0
FLAG 976 384 0
SYMBOL nmos 496 0 R0
SYMATTR InstName Q1
SYMATTR Value RJK0305DPB
SYMBOL ind 576 288 R270
WINDOW 0 32 56 VTop 0
WINDOW 3 5 56 VBottom 0
SYMATTR InstName L1
SYMATTR Value .4
SYMATTR SpiceLine Rser=1.5m
SYMBOL cap 1056 304 R0
WINDOW 39 20 61 Left 0
WINDOW 3 45 32 Left 0
SYMATTR SpiceLine Rser=4.5m
SYMATTR Value 660
SYMATTR InstName C1
SYMBOL res 848 320 R0
SYMATTR InstName R1
SYMATTR Value 43.2K
SYMBOL res 848 464 R0
SYMATTR InstName R2
SYMATTR Value 49.9K
SYMBOL cap 464 192 R270
WINDOW 0 32 32 VTop 0
WINDOW 3 0 32 VBottom 0
SYMATTR InstName C2
SYMATTR Value .1
SYMBOL cap -144 0 R0
SYMATTR InstName C3
SYMATTR Value 4.7
SYMBOL cap -176 544 R90
WINDOW 0 0 32 VBottom 0
WINDOW 3 32 32 VTop 0
WINDOW 39 61 34 VTop 0
SYMATTR InstName C4
SYMATTR Value 3300p
SYMATTR SpiceLine Rser=6.49K Cpar=470p
SYMBOL cap -144 352 R90
WINDOW 0 0 32 VBottom 0
WINDOW 3 32 32 VTop 0
SYMATTR InstName C5
SYMATTR Value .002
SYMBOL voltage 752 -16 R0
WINDOW 3 20 93 Left 0
SYMATTR Value 12
SYMATTR InstName V1
SYMBOL schottky 416 -96 R0
WINDOW 3 24 65 Left 0
SYMATTR Value CMDSH2-3
SYMATTR InstName D1
SYMATTR Description Diode
SYMATTR Type diode
SYMBOL nmos 496 288 R0
WINDOW 3 52 77 Left 0
SYMATTR Value RJK0301DPB
SYMATTR InstName Q2
SYMBOL res 640 544 R90
WINDOW 0 0 56 VBottom 0
WINDOW 3 32 56 VTop 0
SYMATTR InstName R3
SYMATTR Value 10
SYMBOL cap 432 576 R0
WINDOW 3 24 55 Left 0
WINDOW 39 24 85 Left 0
SYMATTR Value 1n
SYMATTR InstName C7
SYMBOL res 1216 272 R0
SYMATTR InstName Rload
SYMATTR Value .1
SYMBOL PowerProducts\\LTC3851A 176 320 R0
SYMATTR InstName U1
SYMBOL res 816 256 R90
WINDOW 0 0 56 VBottom 0
WINDOW 3 32 56 VTop 0
SYMATTR InstName Rs
SYMATTR Value 2m
SYMBOL res 704 640 R90
WINDOW 0 0 56 VBottom 0
WINDOW 3 32 56 VTop 0
SYMATTR InstName R4
SYMATTR Value 10
SYMBOL cap 960 304 R0
SYMATTR InstName C6
SYMATTR Value 47
SYMBOL res -64 448 R90
WINDOW 0 0 56 VBottom 0
WINDOW 3 32 56 VTop 0
SYMATTR InstName R5
SYMATTR Value 97.6K
TEXT 968 680 Left 0 !.tran 2m startup
TEXT 272 -112 Bottom 0 ;LTC3851A - Synchronous Step-down DC/DC Converter\nInput: 12V          Output: 1.5V @ 15A
TEXT -240 736 Left 0 ;Note:\n  If the simulation model is not found please update with the "Sync Release" command from the "Tools" menu.\n  It remains the customer's responsibility to verify proper and reliable operation in the actual application.\n  Component substitution and printed circuit board layout may significantly affect circuit performance or reliability.\n  Contact your local sales representative for assistance. This circuit is distributed to customers only for use with LTC parts.\n  Copyright  2011 Linear Technology Inc. All rights reserved.
