Version 4
SHEET 1 5776 3564
WIRE 1392 976 784 976
WIRE 784 1056 784 976
WIRE 832 1056 784 1056
WIRE 912 1056 832 1056
WIRE 1504 1056 1360 1056
WIRE 1712 1056 1504 1056
WIRE 1808 1056 1712 1056
WIRE 1920 1056 1808 1056
WIRE 832 1072 832 1056
WIRE 1504 1072 1504 1056
WIRE 1920 1088 1920 1056
WIRE 1712 1104 1712 1056
WIRE 832 1152 832 1136
WIRE 1456 1152 1360 1152
WIRE 1712 1200 1712 1168
WIRE 1920 1200 1920 1168
WIRE 784 1248 784 1056
WIRE 912 1248 784 1248
WIRE 1392 1248 1392 1040
WIRE 1392 1248 1360 1248
WIRE 1424 1248 1392 1248
WIRE 1504 1248 1504 1168
WIRE 1504 1248 1488 1248
WIRE 1504 1344 1504 1248
WIRE 1504 1344 1360 1344
WIRE 1568 1344 1504 1344
WIRE 1648 1344 1568 1344
WIRE 1792 1344 1728 1344
WIRE 1824 1344 1792 1344
WIRE 1936 1344 1904 1344
WIRE 2032 1344 1936 1344
WIRE 2256 1344 2032 1344
WIRE 2480 1344 2256 1344
WIRE 2672 1344 2480 1344
WIRE 1504 1360 1504 1344
WIRE 2256 1376 2256 1344
WIRE 2480 1376 2480 1344
WIRE 2672 1376 2672 1344
WIRE 2032 1392 2032 1344
WIRE 2032 1408 2032 1392
WIRE 752 1440 704 1440
WIRE 864 1440 816 1440
WIRE 912 1440 864 1440
WIRE 1456 1440 1360 1440
WIRE 1504 1472 1504 1456
WIRE 2256 1472 2256 1440
WIRE 2480 1488 2480 1456
WIRE 2672 1488 2672 1456
WIRE 2032 1504 2032 1488
WIRE 752 1536 704 1536
WIRE 912 1536 832 1536
WIRE 1408 1536 1360 1536
WIRE 1984 1536 1408 1536
WIRE 2032 1552 2032 1504
WIRE 672 1632 544 1632
WIRE 880 1632 672 1632
WIRE 912 1632 880 1632
WIRE 1408 1632 1360 1632
WIRE 1488 1632 1408 1632
WIRE 1792 1632 1792 1344
WIRE 1792 1632 1568 1632
WIRE 672 1648 672 1632
WIRE 1408 1648 1408 1632
WIRE 1984 1664 1984 1536
WIRE 2032 1664 2032 1632
WIRE 2032 1664 1984 1664
WIRE 544 1696 544 1632
WIRE 2032 1696 2032 1664
WIRE 672 1728 672 1712
WIRE 912 1728 880 1728
WIRE 1408 1728 1408 1712
WIRE 1408 1728 1360 1728
WIRE 1488 1728 1408 1728
WIRE 1936 1728 1936 1344
WIRE 1936 1728 1568 1728
WIRE 2032 1808 2032 1776
WIRE 544 1824 544 1760
WIRE 672 1824 672 1808
FLAG 2032 1392 B
FLAG 2032 1504 A
FLAG 672 1824 0
FLAG 2480 1488 0
FLAG 2256 1472 0
FLAG 1920 1200 0
FLAG 880 1632 C
FLAG 544 1824 0
FLAG 2672 1488 0
FLAG 2032 1808 0
FLAG 1712 1200 0
FLAG 1808 1056 IN
FLAG 880 1728 0
FLAG 1504 1472 0
FLAG 832 1152 0
FLAG 704 1440 0
FLAG 704 1536 0
FLAG 864 1440 SS
FLAG 1408 1536 FB
FLAG 1568 1344 D
SYMBOL VOLTAGE 2032 1504 R180
WINDOW 0 -81 107 Left 2
WINDOW 3 -508 -110 Left 2
SYMATTR InstName Vsine
SYMATTR Value SINE(0 {if(freq<10k,50m,5m)} {freq})
SYMBOL RES 656 1712 R0
WINDOW 0 51 41 Left 2
WINDOW 3 44 67 Left 2
SYMATTR InstName R1
SYMATTR Value {R1}
SYMBOL res 2016 1536 R0
WINDOW 0 46 38 Left 2
WINDOW 3 38 68 Left 2
SYMATTR InstName Ra
SYMATTR Value {Ra}
SYMBOL cap 656 1648 R0
WINDOW 0 45 22 Left 2
WINDOW 3 39 52 Left 2
SYMATTR InstName C1
SYMATTR Value {C1}
SYMBOL polcap 2240 1376 R0
WINDOW 0 59 2 Left 2
WINDOW 3 53 33 Left 2
WINDOW 39 49 64 Left 2
SYMATTR InstName Cout
SYMATTR Value {Cout}
SYMATTR SpiceLine Rser={Resr}
SYMBOL VOLTAGE 1920 1072 R0
WINDOW 0 41 35 Left 2
WINDOW 3 40 64 Left 2
WINDOW 123 0 0 Left 2
WINDOW 39 40 96 Left 2
SYMATTR InstName Vin
SYMATTR Value {Vin}
SYMATTR SpiceLine Rser=10m
SYMBOL ind 1632 1360 R270
WINDOW 0 102 57 VTop 2
WINDOW 3 98 58 VBottom 2
WINDOW 39 65 58 VBottom 2
SYMATTR InstName L
SYMATTR Value {L}
SYMATTR SpiceLine Rser={Rdcr}
SYMBOL res 2464 1360 R0
WINDOW 0 50 35 Left 2
WINDOW 3 46 66 Left 2
SYMATTR InstName Rload
SYMATTR Value {Rload}
SYMBOL cap 528 1696 R0
WINDOW 0 49 19 Left 2
WINDOW 3 41 50 Left 2
SYMATTR InstName C2
SYMATTR Value {C2}
SYMBOL current 2672 1376 R0
WINDOW 3 -222 183 Left 2
WINDOW 123 0 0 Left 2
WINDOW 39 0 0 Left 2
WINDOW 0 45 16 Left 2
SYMATTR Value PWL(0 0 2.0m 0 2.001m {Istep})
SYMATTR InstName Istep
SYMBOL res 1808 1328 M90
WINDOW 0 -34 55 VBottom 2
WINDOW 3 -32 56 VTop 2
SYMATTR InstName Rsns
SYMATTR Value {Rsns}
SYMBOL res 2016 1680 R0
WINDOW 0 48 33 Left 2
WINDOW 3 41 61 Left 2
SYMATTR InstName Rb
SYMATTR Value {Rb}
SYMBOL polcap 1696 1104 R0
WINDOW 0 52 6 Left 2
WINDOW 3 51 30 Left 2
WINDOW 39 52 55 Left 2
SYMATTR InstName Cin
SYMATTR Value 40µ
SYMATTR SpiceLine Rser=10m
SYMBOL nmos 1456 1072 R0
SYMATTR InstName Q1
SYMATTR Value RJK0305DPB
SYMBOL cap 1424 1264 R270
WINDOW 0 32 32 VTop 2
WINDOW 3 0 32 VBottom 2
SYMATTR InstName C4
SYMATTR Value .1µ
SYMBOL cap 816 1072 R0
SYMATTR InstName C3
SYMATTR Value 4.7µ
SYMBOL cap 816 1424 R90
WINDOW 0 -33 31 VBottom 2
WINDOW 3 -31 31 VTop 2
SYMATTR InstName Css
SYMATTR Value 2n
SYMBOL schottky 1376 976 R0
WINDOW 3 52 43 Left 2
WINDOW 0 53 17 Left 2
SYMATTR Value CMDSH2-3
SYMATTR InstName D1
SYMATTR Description Diode
SYMATTR Type diode
SYMBOL nmos 1456 1360 R0
WINDOW 3 52 77 Left 2
SYMATTR Value RJK0301DPB
SYMATTR InstName Q2
SYMBOL res 1584 1616 R90
WINDOW 0 -35 56 VBottom 2
WINDOW 3 -33 56 VTop 2
SYMATTR InstName R2
SYMATTR Value 10
SYMBOL cap 1392 1648 R0
WINDOW 3 50 50 Left 2
WINDOW 39 24 85 Left 2
WINDOW 0 41 21 Left 2
SYMATTR Value 1n
SYMATTR InstName C5
SYMBOL PowerProducts\\LTC3851A 1136 1392 R0
SYMATTR InstName U1
SYMBOL res 1584 1712 R90
WINDOW 0 63 52 VBottom 2
WINDOW 3 65 51 VTop 2
SYMATTR InstName R3
SYMATTR Value 10
SYMBOL res 848 1520 R90
WINDOW 0 -28 57 VBottom 2
WINDOW 3 -28 56 VTop 2
SYMATTR InstName Rfreq
SYMATTR Value 60k
TEXT 3000 104 Left 2 !;.tran 0 {if(freq<10k,2.2m+10/freq,3.2m} startup
TEXT 2976 72 Left 2 ;Transient response from time = 0
TEXT 2976 160 Left 2 ;Transient response from time = 2.2ms (after the load step has settled)
TEXT 3008 200 Left 2 !.tran 0 {if(freq<10k,2.2m+10/freq,3.2m} 2.2m startup
TEXT 2976 1288 Left 2 !.save V(a) V(b) V(c) V(d) I(L)\n.option plotwinsize=0  ; turn off waveform compression\n.option option_angle=degrees\n.option nomarch=1 ; do not generate plots until done\n \n.measure Aavg avg V(a)\n.measure Bavg avg V(b)\n.measure Cavg avg V(c)\n.measure Davg avg V(d)\n.measure Are avg  (V(a)-Aavg)*cos(360*time*Freq)\n.measure Aim avg -(V(a)-Aavg)*sin(360*time*Freq)\n.measure Bre avg  (V(b)-Bavg)*cos(360*time*Freq)\n.measure Bim avg -(V(b)-Bavg)*sin(360*time*Freq)\n.measure Cre avg  (V(c)-Cavg)*cos(360*time*Freq)\n.measure Cim avg -(V(c)-Cavg)*sin(360*time*Freq)\n.measure Dre avg  (V(d)-Davg)*cos(360*time*Freq)\n.measure Dim avg -(V(d)-Davg)*sin(360*time*Freq)\n.measure Gain_dB param 20*log10(hypot(Bre,Bim) / hypot(Are,Aim))\n.measure Phase param mod(atan2(Bim, Bre) - atan2(Aim, Are)+180,360)-180\n.measure Kco_dB param 20*log10(hypot(Bre,Bim) / hypot(Cre,Cim))\n.measure Kco_Phase param mod(atan2(Bim, Bre) - atan2(Cim, Cre)+180,360)-180\n.measure Kcomp_dB param 20*log10(hypot(Cre,Cim) / hypot(Are,Aim))\n.measure Kcomp_Phase param mod(atan2(Cim, Cre) - atan2(Aim, Are)+180,360)-180\n.measure Kpwr_dB param 20*log10(hypot(Bre,Bim) / hypot(Dre,Dim))\n.measure Kpwr_Phase param mod(atan2(Bim, Bre) - atan2(Dim, Dre)+180,360)-180
TEXT 2624 848 Left 2 !;.step param freq list  1k 2k 3k 4k 5k 7k 10k 20k 30k 50k 70k 100k 200k 300k 500k 700k 1Meg
TEXT 2608 904 Left 2 ;Detailed response (the 100Hz and 300Hz measurements take a long time)
TEXT 2624 768 Left 2 !.step param freq list  1k 3k 10k 30k 100k 300k 1Meg
TEXT 2608 736 Left 2 ;Use this set of frequencies to get the coarse response reasonably quickly
TEXT 2592 688 Left 3 ;Frequency sweep:
TEXT 2608 816 Left 2 ;Use this set of frequencies for the detailed response (excluding the lowest frequencies)
TEXT 2624 936 Left 2 !;.step param freq list 100 300 1k 2k 3k 4k 5k 7k 10k 20k 30k 50k 70k 100k 200k 300k 500k 700k 1Meg
TEXT 3008 312 Left 2 ;To view the current load step transient response;\na) Comment out the .step command\nb) Change the .tran command to keep all the data\nc) (Optional) Change the sinusoid amplitude from 5m to 5p\nd) Create a plot with three panes containing V(b), V(c), and I(L)\ne) (Optional) comment out the nomarch option to see the plot\n    waveforms updating during simulation\nf) (Optional) Comment out the .save command to view more signals
TEXT 2144 0 Left 2 !.param\n+ freq = 30k\n+ Vin = 12\n+ Vout = 1.5\n+ Iout = 15\n+ Irload = 1     ; Resistive load current\n+ Istep = (Iout-Irload)   ; Load step\n+ Rload = (Vout/Irload)\n+ L = 0.47u  ; IHLP-3232DZ-01\n+ Rdcr = 2.6m\n+ Rsns = 2m\n+ Vref = 0.8\n+ Ra = 43.2k\n+ Rb = 49.9k\n+ R1 = 6.49k\n+ C1 = 3300p\n+ C2 = 470p\n+ Cout = 660u ; 2 x 2R5TPE330M9 (POSCAP)\n+ Resr = 4.5m
TEXT 2952 -80 Left 3 ;Analysis:
TEXT 2136 -64 Left 3 ;Parameters:
TEXT 2976 -24 Left 2 ;Use CTRL+right-mouse-click to (un)comment\none of these .tran commands
TEXT 2976 1192 Left 3 ;Gain and Phase Calculations:
TEXT 2976 264 Left 3 ;Note:
TEXT 552 -72 Left 4 ;LTC3581A Current-mode Synchronous Buck Controller Example #1
TEXT 616 88 Left 3 ;The example power supply converts 12V to 1.5V @ 15A.\n \nThis example is based on the LTspice circuit downloaded from the\nLTC3581A page on Linear's web site. With the following modifications;\n * fsw increased from 350kHz to 500kHz\n * Selected a 0.47uH inductor with a specific part number\n * Determined a part number for the output capacitance
TEXT 768 -16 Left 3 ;6/15/2013 D. W. Hawkins (dwh@ovro.caltech.edu)
TEXT 608 1488 Left 2 ;fsw = 500kHz
TEXT 608 1392 Left 2 ;tss = 1.6ms
LINE Normal 2080 1472 2176 1584
LINE Normal 2640 1456 2544 1536
RECTANGLE Normal 3968 2024 2928 1104
RECTANGLE Normal 2816 560 2064 -136
RECTANGLE Normal 3888 584 2928 -128
RECTANGLE Normal 4000 2112 432 -184
RECTANGLE Normal 3888 992 2560 648
RECTANGLE Normal 1944 552 512 -128
