Version 4
SHEET 1 3608 1240
WIRE 208 -448 208 -464
WIRE -768 -368 -864 -368
WIRE -672 -368 -768 -368
WIRE -496 -368 -672 -368
WIRE 112 -368 -496 -368
WIRE -864 -352 -864 -368
WIRE -672 -352 -672 -368
WIRE 208 -352 208 -384
WIRE 208 -352 -304 -352
WIRE -496 -336 -496 -368
WIRE 112 -320 112 -368
WIRE 208 -320 208 -352
WIRE 496 -320 496 -464
WIRE -864 -256 -864 -272
WIRE -672 -256 -672 -288
WIRE -256 -256 -448 -256
WIRE -304 -240 -304 -352
WIRE -304 -160 -304 -176
WIRE -256 -160 -304 -160
WIRE -304 -144 -304 -160
WIRE -1312 -64 -1408 -64
WIRE -1248 -64 -1312 -64
WIRE -1072 -64 -1248 -64
WIRE -912 -64 -1072 -64
WIRE -768 -64 -912 -64
WIRE -720 -64 -768 -64
WIRE -704 -64 -720 -64
WIRE -608 -64 -624 -64
WIRE -496 -64 -496 -240
WIRE -496 -64 -608 -64
WIRE -304 -64 -304 -80
WIRE -304 -64 -496 -64
WIRE -256 -64 -304 -64
WIRE -1408 -48 -1408 -64
WIRE -1248 -48 -1248 -64
WIRE -1072 -48 -1072 -64
WIRE -912 -48 -912 -64
WIRE -496 -48 -496 -64
WIRE -256 32 -448 32
WIRE -1408 48 -1408 32
WIRE -1248 48 -1248 32
WIRE -1072 48 -1072 16
WIRE -912 48 -912 16
WIRE -496 64 -496 48
WIRE -608 128 -608 -64
WIRE -592 128 -608 128
WIRE -432 128 -512 128
WIRE -304 128 -432 128
WIRE -256 128 -304 128
WIRE -304 144 -304 128
WIRE -768 208 -768 -64
WIRE -720 224 -720 -64
WIRE -432 224 -432 208
WIRE -432 224 -720 224
WIRE -304 224 -304 208
WIRE -304 224 -432 224
WIRE -256 224 -304 224
WIRE -768 320 -768 288
WIRE -304 320 -768 320
WIRE -256 320 -304 320
WIRE -768 336 -768 320
WIRE -528 416 -688 416
WIRE -336 416 -528 416
WIRE -256 416 -336 416
WIRE -688 432 -688 416
WIRE -768 448 -768 416
WIRE -528 480 -528 416
WIRE -688 512 -688 496
WIRE -304 512 -352 512
WIRE -256 512 -304 512
WIRE -352 528 -352 512
WIRE -688 608 -688 592
WIRE -608 608 -688 608
WIRE -528 608 -528 544
WIRE -528 608 -608 608
WIRE -352 624 -352 592
WIRE -608 640 -608 608
WIRE -256 704 -288 704
WIRE -288 736 -288 704
WIRE -128 784 -128 768
WIRE -32 784 -32 768
WIRE 160 784 160 768
WIRE 256 784 256 768
WIRE 304 784 256 784
WIRE 352 784 352 768
WIRE 352 784 304 784
WIRE 544 784 544 768
WIRE 304 800 304 784
WIRE -32 880 -32 864
FLAG 208 -464 0
FLAG 544 784 0
FLAG -128 784 0
FLAG 160 784 0
FLAG -32 880 0
FLAG -496 64 0
FLAG -352 624 0
FLAG -768 -368 IN
FLAG -864 -256 0
FLAG -912 48 0
FLAG -1072 48 0
FLAG -1248 48 0
FLAG -608 640 0
FLAG -288 736 0
FLAG -768 448 0
FLAG -1312 -64 OUT
FLAG -672 -256 0
FLAG -1408 48 0
FLAG -336 416 COMP
FLAG -304 512 SS
FLAG -304 320 FB
FLAG 496 -464 0
FLAG 304 800 0
SYMBOL PowerProducts\\LTC3855 208 224 R0
SYMATTR InstName U1
SYMBOL cap 192 -448 R0
SYMATTR InstName C3
SYMATTR Value 4.7µ
SYMBOL res -48 768 R0
SYMATTR InstName R6
SYMATTR Value 180k
SYMBOL nmos -448 -336 M0
WINDOW 0 -38 51 Left 2
WINDOW 3 31 107 Right 2
SYMATTR InstName Q1
SYMATTR Value RJK0305DPB
SYMBOL nmos -448 -48 M0
WINDOW 0 -36 57 Left 2
WINDOW 3 -149 103 Left 2
SYMATTR InstName Q2
SYMATTR Value RJK0301DPB
SYMBOL ind -608 -48 M270
WINDOW 0 108 54 VTop 2
WINDOW 3 104 54 VBottom 2
WINDOW 39 43 51 VTop 2
SYMATTR InstName L
SYMATTR Value {L}
SYMATTR SpiceLine Rser={Rdcr}
SYMBOL cap -320 -144 R0
SYMATTR InstName C4
SYMATTR Value .1µ
SYMBOL schottky -288 -240 M0
WINDOW 0 8 0 Right 2
SYMATTR InstName D1
SYMATTR Value CMDSH2-3
SYMATTR Description Diode
SYMATTR Type diode
SYMBOL cap -320 144 R0
WINDOW 0 -60 16 Left 2
WINDOW 3 -66 45 Left 2
SYMATTR InstName Cs
SYMATTR Value {Cs}
SYMBOL res -608 112 M90
WINDOW 0 -34 51 VBottom 2
WINDOW 3 -35 52 VTop 2
SYMATTR InstName Rs
SYMATTR Value {Rs}
SYMBOL cap -336 528 M0
WINDOW 0 42 32 Left 2
WINDOW 3 28 61 Left 2
SYMATTR InstName Css
SYMATTR Value 1800p
SYMBOL res -784 320 R0
WINDOW 0 -52 36 Left 2
WINDOW 3 -57 66 Left 2
SYMATTR InstName Rb
SYMATTR Value {Rb}
SYMBOL res -784 192 R0
WINDOW 0 -55 39 Left 2
WINDOW 3 -58 72 Left 2
SYMATTR InstName Ra
SYMATTR Value {Ra}
SYMBOL voltage -864 -368 R0
WINDOW 0 47 30 Left 2
WINDOW 3 40 58 Left 2
WINDOW 123 0 0 Left 2
WINDOW 39 43 90 Left 2
SYMATTR InstName Vin
SYMATTR Value {Vin}
SYMATTR SpiceLine Rser=10m
SYMBOL cap -928 -48 R0
WINDOW 39 -45 -67 Left 2
WINDOW 0 -10 -128 Left 2
WINDOW 3 -17 -98 Left 2
WINDOW 40 -36 -38 Left 2
SYMATTR SpiceLine Rser={Resr2}
SYMATTR InstName Cout2
SYMATTR Value {Cout2}
SYMATTR SpiceLine2 m={Mout2}
SYMBOL polcap -1088 -48 R0
WINDOW 39 -56 -69 Left 2
WINDOW 0 -17 -128 Left 2
WINDOW 3 -24 -99 Left 2
WINDOW 40 -45 -36 Left 2
SYMATTR SpiceLine Rser={Resr1}
SYMATTR InstName Cout1
SYMATTR Value {Cout1}
SYMATTR SpiceLine2 m={Mout1}
SYMBOL res -1264 -64 R0
WINDOW 0 46 46 Left 2
SYMATTR InstName Rload
SYMATTR Value {Rload}
SYMBOL cap -544 480 R0
WINDOW 0 52 17 Left 2
WINDOW 3 44 45 Left 2
SYMATTR InstName C2
SYMATTR Value {C2}
SYMBOL cap -704 432 R0
WINDOW 0 48 22 Left 2
WINDOW 3 38 52 Left 2
SYMATTR InstName C1
SYMATTR Value {C1}
SYMBOL res -704 496 R0
WINDOW 0 50 41 Left 2
WINDOW 3 42 69 Left 2
SYMATTR InstName R1
SYMATTR Value {R1}
SYMBOL cap -688 -352 R0
WINDOW 3 49 37 Left 2
WINDOW 0 48 12 Left 2
WINDOW 39 49 65 Left 2
SYMATTR Value 40µ
SYMATTR InstName Cin
SYMATTR SpiceLine Rser=10m
SYMBOL current -1408 -48 R0
WINDOW 3 -79 184 Left 2
WINDOW 123 0 0 Left 2
WINDOW 39 0 0 Left 2
WINDOW 0 43 40 Left 2
SYMATTR Value PWL(0 0 1.4m 0 1.401m {Istep} 1.8m {Istep} 1.801m 0)
SYMATTR InstName Istep
SYMBOL res -416 112 M0
WINDOW 0 37 48 Left 2
SYMATTR InstName Ratten
SYMATTR Value {Ratten}
TEXT 16 -656 Left 2 !.tran 0 2.1m 1.1m startup
TEXT -1512 -96 Left 2 ;0.95V @ 20A
TEXT -1296 88 Left 2 ;static load
TEXT -1456 88 Left 2 ;load step
TEXT 0 888 Left 2 ;Rfreq = 120k for fsw = 500kHz\nRfreq = 180k for fsw = 750kHz
TEXT -1448 -968 Left 4 ;LTC3855 Current-mode Synchronous Buck Controller Example #1
TEXT -1384 -808 Left 3 ;The example power supply converts 12V to 0.95V @ 20A (one channel).\n \nThis example is based on the LTspice circuit downloaded from the\nLTC3855 page on Linear's web site. With the following modifications;\n * fsw increased from 350kHz to 750kHz\n * increased the soft-start time\n * deleted channel 2 components \n   (to minimize single-channel simulation time)
TEXT -1232 -912 Left 3 ;6/20/2013 D. W. Hawkins (dwh@ovro.caltech.edu)
TEXT 1128 -928 Left 2 !.param\n+ Vin = 12\n+ Vout = 0.95\n+ Iout = 20\n+ Irload = 1     ; Resistive load current\n+ Istep = (Iout-Irload)   ; Load step\n+ Rload = (Vout/Irload)\n+ L = 0.22u  ; IHLP-3232DZ-01\n+ Rdcr = 1.68m\n+ Vref = 0.6\n+ Ra = 10.2k   ; Vout = 0.952V\n+ Rb = 17.4k\n+ R1 = 40.2k\n+ C1 = 560p\n+ C2 = 82p\n+ Cout1 = 1000u ; 470uF/6m 2R5TPF470M6L (POSCAP)\n+ Resr1 = 6m      ; or 1000uF/6m ETPF1000M6H\n+ Mout1 = 4\n+ Cout2 = 100u ; TDK C5750X5R0J107M (Ceramic)\n+ Resr2 = 2m\n+ Mout2 = 2\n+ Cs = 100n\n+ Rs = 1.3k\n+ Ratten = 5.23k
TEXT 1112 -976 Left 3 ;Parameters:
TEXT -8 -984 Left 3 ;Analysis:
TEXT 0 -776 Left 2 ;Transient response from time = 0
TEXT 0 -688 Left 2 ;Transient response from time = 1.1ms
TEXT 0 -880 Left 2 ;Use CTRL+right-mouse-click to (un)comment\none of these .tran commands
TEXT 728 232 Left 4 ;Channel#2 disabled to minimize simulation time
TEXT 16 -736 Left 2 !;.tran 2.1m startup
RECTANGLE Normal 1976 936 -1528 -1064
RECTANGLE Normal -104 -472 -1488 -1024
RECTANGLE Normal 1744 -232 1056 -1024
RECTANGLE Normal 544 -592 -32 -1032
