Version 4
SHEET 1 3608 1240
WIRE 208 -448 208 -464
WIRE -768 -368 -864 -368
WIRE -672 -368 -768 -368
WIRE -496 -368 -672 -368
WIRE 112 -368 -496 -368
WIRE -864 -352 -864 -368
WIRE -672 -352 -672 -368
WIRE 208 -352 208 -384
WIRE 208 -352 -304 -352
WIRE -496 -336 -496 -368
WIRE 112 -320 112 -368
WIRE 208 -320 208 -352
WIRE 496 -320 496 -464
WIRE -864 -256 -864 -272
WIRE -672 -256 -672 -288
WIRE -256 -256 -448 -256
WIRE -304 -240 -304 -352
WIRE -304 -160 -304 -176
WIRE -256 -160 -304 -160
WIRE -304 -144 -304 -160
WIRE -1248 -64 -1408 -64
WIRE -1072 -64 -1248 -64
WIRE -912 -64 -1072 -64
WIRE -816 -64 -912 -64
WIRE -720 -64 -816 -64
WIRE -704 -64 -720 -64
WIRE -608 -64 -624 -64
WIRE -560 -64 -608 -64
WIRE -496 -64 -496 -240
WIRE -496 -64 -560 -64
WIRE -304 -64 -304 -80
WIRE -304 -64 -496 -64
WIRE -256 -64 -304 -64
WIRE -1408 -48 -1408 -64
WIRE -1248 -48 -1248 -64
WIRE -1072 -48 -1072 -64
WIRE -912 -48 -912 -64
WIRE -496 -48 -496 -64
WIRE -256 32 -448 32
WIRE -1408 48 -1408 32
WIRE -1248 48 -1248 32
WIRE -1072 48 -1072 16
WIRE -912 48 -912 16
WIRE -816 48 -816 -64
WIRE -816 64 -816 48
WIRE -496 64 -496 48
WIRE -608 128 -608 -64
WIRE -592 128 -608 128
WIRE -432 128 -512 128
WIRE -304 128 -432 128
WIRE -256 128 -304 128
WIRE -304 144 -304 128
WIRE -816 160 -816 144
WIRE -816 208 -816 160
WIRE -720 224 -720 -64
WIRE -432 224 -432 208
WIRE -432 224 -720 224
WIRE -304 224 -304 208
WIRE -304 224 -432 224
WIRE -256 224 -304 224
WIRE -816 320 -816 288
WIRE -304 320 -816 320
WIRE -256 320 -304 320
WIRE -816 336 -816 320
WIRE -528 416 -688 416
WIRE -304 416 -528 416
WIRE -256 416 -304 416
WIRE -688 432 -688 416
WIRE -816 448 -816 416
WIRE -528 480 -528 416
WIRE -688 512 -688 496
WIRE -304 512 -352 512
WIRE -256 512 -304 512
WIRE -352 528 -352 512
WIRE -688 608 -688 592
WIRE -608 608 -688 608
WIRE -528 608 -528 544
WIRE -528 608 -608 608
WIRE -352 624 -352 592
WIRE -608 640 -608 608
WIRE -256 704 -288 704
WIRE -288 736 -288 704
WIRE -128 784 -128 768
WIRE -32 784 -32 768
WIRE 160 784 160 768
WIRE 256 784 256 768
WIRE 304 784 256 784
WIRE 352 784 352 768
WIRE 352 784 304 784
WIRE 544 784 544 768
WIRE 304 800 304 784
WIRE -32 880 -32 864
FLAG 208 -464 0
FLAG 544 784 0
FLAG -128 784 0
FLAG 160 784 0
FLAG -32 880 0
FLAG -496 64 0
FLAG -352 624 0
FLAG -768 -368 IN
FLAG -864 -256 0
FLAG -912 48 0
FLAG -1072 48 0
FLAG -1248 48 0
FLAG -608 640 0
FLAG -288 736 0
FLAG -816 448 0
FLAG -672 -256 0
FLAG -1408 48 0
FLAG -304 416 C
FLAG -304 512 SS
FLAG -304 320 FB
FLAG 496 -464 0
FLAG -816 48 B
FLAG -816 160 A
FLAG -560 -64 D
FLAG 304 800 0
SYMBOL PowerProducts\\LTC3855 208 224 R0
SYMATTR InstName U1
SYMBOL cap 192 -448 R0
SYMATTR InstName C3
SYMATTR Value 4.7µ
SYMBOL res -48 768 R0
SYMATTR InstName R6
SYMATTR Value 180k
SYMBOL nmos -448 -336 M0
WINDOW 0 -38 51 Left 2
WINDOW 3 31 107 Right 2
SYMATTR InstName Q1
SYMATTR Value RJK0305DPB
SYMBOL nmos -448 -48 M0
WINDOW 0 -36 57 Left 2
WINDOW 3 -149 103 Left 2
SYMATTR InstName Q2
SYMATTR Value RJK0301DPB
SYMBOL ind -608 -48 M270
WINDOW 0 108 54 VTop 2
WINDOW 3 104 54 VBottom 2
WINDOW 39 43 51 VTop 2
SYMATTR InstName L
SYMATTR Value {L}
SYMATTR SpiceLine Rser={Rdcr}
SYMBOL cap -320 -144 R0
SYMATTR InstName C4
SYMATTR Value .1µ
SYMBOL schottky -288 -240 M0
WINDOW 0 8 0 Right 2
SYMATTR InstName D1
SYMATTR Value CMDSH2-3
SYMATTR Description Diode
SYMATTR Type diode
SYMBOL cap -320 144 R0
WINDOW 0 -60 16 Left 2
WINDOW 3 -66 45 Left 2
SYMATTR InstName Cs
SYMATTR Value {Cs}
SYMBOL res -608 112 M90
WINDOW 0 -34 51 VBottom 2
WINDOW 3 -35 52 VTop 2
SYMATTR InstName Rs
SYMATTR Value {Rs}
SYMBOL cap -336 528 M0
WINDOW 0 43 34 Left 2
WINDOW 3 28 62 Left 2
SYMATTR InstName Css
SYMATTR Value 1800p
SYMBOL res -832 320 R0
WINDOW 0 -52 36 Left 2
WINDOW 3 -57 66 Left 2
SYMATTR InstName Rb
SYMATTR Value {Rb}
SYMBOL res -832 192 R0
WINDOW 0 -55 39 Left 2
WINDOW 3 -58 72 Left 2
SYMATTR InstName Ra
SYMATTR Value {Ra}
SYMBOL voltage -864 -368 R0
WINDOW 0 47 30 Left 2
WINDOW 3 40 58 Left 2
WINDOW 123 0 0 Left 2
WINDOW 39 43 90 Left 2
SYMATTR InstName Vin
SYMATTR Value {Vin}
SYMATTR SpiceLine Rser=10m
SYMBOL cap -928 -48 R0
WINDOW 39 -45 -67 Left 2
WINDOW 0 -10 -128 Left 2
WINDOW 3 -17 -98 Left 2
WINDOW 40 -36 -38 Left 2
SYMATTR SpiceLine Rser={Resr2}
SYMATTR InstName Cout2
SYMATTR Value {Cout2}
SYMATTR SpiceLine2 m={Mout2}
SYMBOL polcap -1088 -48 R0
WINDOW 39 -56 -69 Left 2
WINDOW 0 -17 -128 Left 2
WINDOW 3 -24 -99 Left 2
WINDOW 40 -45 -36 Left 2
SYMATTR SpiceLine Rser={Resr1}
SYMATTR InstName Cout1
SYMATTR Value {Cout1}
SYMATTR SpiceLine2 m={Mout1}
SYMBOL res -1264 -64 R0
WINDOW 0 46 46 Left 2
SYMATTR InstName Rload
SYMATTR Value {Rload}
SYMBOL cap -544 480 R0
WINDOW 0 53 14 Left 2
WINDOW 3 44 45 Left 2
SYMATTR InstName C2
SYMATTR Value {C2}
SYMBOL cap -704 432 R0
WINDOW 0 45 21 Left 2
WINDOW 3 38 52 Left 2
SYMATTR InstName C1
SYMATTR Value {C1}
SYMBOL res -704 496 R0
WINDOW 0 50 41 Left 2
WINDOW 3 42 69 Left 2
SYMATTR InstName R1
SYMATTR Value {R1}
SYMBOL cap -688 -352 R0
WINDOW 3 49 37 Left 2
WINDOW 0 48 12 Left 2
WINDOW 39 49 65 Left 2
SYMATTR Value 40µ
SYMATTR InstName Cin
SYMATTR SpiceLine Rser=10m
SYMBOL current -1408 -48 R0
WINDOW 3 -79 184 Left 2
WINDOW 123 0 0 Left 2
WINDOW 39 0 0 Left 2
WINDOW 0 46 39 Left 2
SYMATTR Value PWL(0 0 1.2m 0 1.201m {Istep})
SYMATTR InstName Istep
SYMBOL res -416 112 M0
WINDOW 0 37 48 Left 2
SYMATTR InstName Ratten
SYMATTR Value {Ratten}
SYMBOL VOLTAGE -816 160 R180
WINDOW 0 -77 105 Left 2
WINDOW 3 150 -80 Left 2
SYMATTR InstName Vsine
SYMATTR Value SINE(0 {if(freq<10k,50m,5m)} {freq})
TEXT -1512 -96 Left 2 ;0.95V @ 20A
TEXT -1296 88 Left 2 ;static load
TEXT -1456 88 Left 2 ;load step
TEXT 0 888 Left 2 ;Rfreq = 120k for fsw = 500kHz\nRfreq = 180k for fsw = 750kHz
TEXT -1472 -1232 Left 4 ;LTC3855 Current-mode Synchronous Buck Controller Example #1
TEXT -1408 -1072 Left 3 ;The example power supply converts 12V to 0.95V @ 20A (one channel).\n \nThis example is based on the LTspice circuit downloaded from the\nLTC3855 page on Linear's web site. With the following modifications;\n * fsw increased from 350kHz to 750kHz\n * increased the soft-start time\n * deleted channel 2 components \n   (to minimize single-channel simulation time)
TEXT -1256 -1176 Left 3 ;6/20/2013 D. W. Hawkins (dwh@ovro.caltech.edu)
TEXT 1232 -1184 Left 2 !.param\n+ freq = 10k\n+ Vin = 12\n+ Vout = 0.95\n+ Iout = 20\n+ Irload = 1     ; Resistive load current\n+ Istep = (Iout-Irload)   ; Load step\n+ Rload = (Vout/Irload)\n+ L = 0.22u  ; IHLP-3232DZ-01\n+ Rdcr = 1.68m\n+ Vref = 0.6\n+ Ra = 10.2k   ; Vout = 0.952V\n+ Rb = 17.4k\n+ R1 = 40.2k\n+ C1 = 560p\n+ C2 = 82p\n+ Cout1 = 1000u ; 470uF/6m 2R5TPF470M6L (POSCAP)\n+ Resr1 = 6m      ; or 1000uF/6m ETPF1000M6H\n+ Mout1 = 4\n+ Cout2 = 100u ; TDK C5750X5R0J107M (Ceramic)\n+ Resr2 = 2m\n+ Mout2 = 2\n+ Cs = 100n\n+ Rs = 1.3k\n+ Ratten = 5.23k
TEXT 1216 -1232 Left 3 ;Parameters:
TEXT 848 200 Left 2 !.save V(a) V(b) V(c) V(d) I(L)\n.option plotwinsize=0  ; turn off waveform compression\n.option option_angle=degrees\n.option nomarch=1 ; do not generate plots until done\n \n.measure Aavg avg V(a)\n.measure Bavg avg V(b)\n.measure Cavg avg V(c)\n.measure Davg avg V(d)\n.measure Are avg  (V(a)-Aavg)*cos(360*time*Freq)\n.measure Aim avg -(V(a)-Aavg)*sin(360*time*Freq)\n.measure Bre avg  (V(b)-Bavg)*cos(360*time*Freq)\n.measure Bim avg -(V(b)-Bavg)*sin(360*time*Freq)\n.measure Cre avg  (V(c)-Cavg)*cos(360*time*Freq)\n.measure Cim avg -(V(c)-Cavg)*sin(360*time*Freq)\n.measure Dre avg  (V(d)-Davg)*cos(360*time*Freq)\n.measure Dim avg -(V(d)-Davg)*sin(360*time*Freq)\n.measure Gain_dB param 20*log10(hypot(Bre,Bim) / hypot(Are,Aim))\n.measure Phase param mod(atan2(Bim, Bre) - atan2(Aim, Are)+180,360)-180\n.measure Kco_dB param 20*log10(hypot(Bre,Bim) / hypot(Cre,Cim))\n.measure Kco_Phase param mod(atan2(Bim, Bre) - atan2(Cim, Cre)+180,360)-180\n.measure Kcomp_dB param 20*log10(hypot(Cre,Cim) / hypot(Are,Aim))\n.measure Kcomp_Phase param mod(atan2(Cim, Cre) - atan2(Aim, Are)+180,360)-180\n.measure Kpwr_dB param 20*log10(hypot(Bre,Bim) / hypot(Dre,Dim))\n.measure Kpwr_Phase param mod(atan2(Bim, Bre) - atan2(Dim, Dre)+180,360)-180
TEXT 848 104 Left 3 ;Gain and Phase Calculations:
TEXT 184 -1048 Left 2 !;.tran 0 {if(freq<10k,1.9m+10/freq,2.9m} startup
TEXT 160 -1080 Left 2 ;Transient response from time = 0
TEXT 160 -992 Left 2 ;Transient response from time = 1.9ms (after the load step has settled)
TEXT 192 -952 Left 2 !.tran 0 {if(freq<10k,1.9m+10/freq,2.9m} 1.9m startup
TEXT 192 -840 Left 2 ;To view the current load step transient response;\na) Comment out the .step command\nb) Change the .tran command to keep all the data\nc) (Optional) Change the sinusoid amplitude from 5m to 5p\nd) Create a plot with three panes containing V(b), V(c), and I(L)\ne) (Optional) comment out the nomarch option to see the plot\n    waveforms updating during simulation\nf) (Optional) Comment out the .save command to view more signals
TEXT 136 -1232 Left 3 ;Analysis:
TEXT 176 -1176 Left 2 ;Use CTRL+right-mouse-click to (un)comment\none of these .tran commands
TEXT 160 -888 Left 3 ;Note:
TEXT 864 -184 Left 2 !;.step param freq list  1k 2k 3k 4k 5k 7k 10k 20k 30k 50k 70k 100k 200k 300k 500k 700k 1Meg
TEXT 848 -128 Left 2 ;Detailed response (the 100Hz and 300Hz measurements take a long time) (14 hours 20 minutes)
TEXT 864 -264 Left 2 !.step param freq list  1k 3k 10k 30k 100k 300k 1Meg
TEXT 848 -296 Left 2 ;Use this set of frequencies to get the coarse response reasonably quickly (1 hour 16 minutes)
TEXT 832 -344 Left 3 ;Frequency sweep:
TEXT 848 -216 Left 2 ;Use this set of frequencies for the detailed response (excluding the lowest frequencies)
TEXT 864 -96 Left 2 !;.step param freq list 100 300 1k 2k 3k 4k 5k 7k 10k 20k 30k 50k 70k 100k 200k 300k 500k 700k 1Meg
LINE Normal -848 128 -944 224
RECTANGLE Normal 2024 1016 -1576 -1352
RECTANGLE Normal -128 -736 -1512 -1288
RECTANGLE Normal 1960 -440 1160 -1280
RECTANGLE Normal 1968 936 800 16
RECTANGLE Normal 968 -584 88 -1280
RECTANGLE Normal 1968 -24 800 -384
