Version 4
SHEET 1 2216 1240
WIRE 208 -448 208 -464
WIRE -608 -368 -704 -368
WIRE -496 -368 -608 -368
WIRE 112 -368 -496 -368
WIRE 816 -368 112 -368
WIRE -704 -352 -704 -368
WIRE -608 -352 -608 -368
WIRE 208 -352 208 -384
WIRE 208 -352 -304 -352
WIRE 688 -352 208 -352
WIRE -496 -336 -496 -368
WIRE 816 -336 816 -368
WIRE 112 -320 112 -368
WIRE 208 -320 208 -352
WIRE -704 -256 -704 -272
WIRE -608 -256 -608 -288
WIRE -256 -256 -448 -256
WIRE 768 -256 656 -256
WIRE -304 -240 -304 -352
WIRE 688 -240 688 -352
WIRE -304 -160 -304 -176
WIRE -256 -160 -304 -160
WIRE 688 -160 688 -176
WIRE 688 -160 656 -160
WIRE -304 -144 -304 -160
WIRE 688 -144 688 -160
WIRE -944 -64 -1072 -64
WIRE -864 -64 -944 -64
WIRE -768 -64 -864 -64
WIRE -720 -64 -768 -64
WIRE -704 -64 -720 -64
WIRE -608 -64 -624 -64
WIRE -592 -64 -608 -64
WIRE -496 -64 -496 -240
WIRE -496 -64 -512 -64
WIRE -304 -64 -304 -80
WIRE -304 -64 -496 -64
WIRE -256 -64 -304 -64
WIRE 688 -64 688 -80
WIRE 688 -64 656 -64
WIRE 816 -64 816 -240
WIRE 816 -64 688 -64
WIRE 864 -64 816 -64
WIRE 992 -64 944 -64
WIRE 1008 -64 992 -64
WIRE 1104 -64 1088 -64
WIRE 1184 -64 1104 -64
WIRE 1248 -64 1184 -64
WIRE 1360 -64 1248 -64
WIRE 1472 -64 1360 -64
WIRE -1072 -48 -1072 -64
WIRE -944 -48 -944 -64
WIRE -864 -48 -864 -64
WIRE -496 -48 -496 -64
WIRE 816 -48 816 -64
WIRE 1248 -32 1248 -64
WIRE 1360 -32 1360 -64
WIRE 1472 -32 1472 -64
WIRE -256 32 -448 32
WIRE 768 32 656 32
WIRE -1072 48 -1072 32
WIRE -944 48 -944 16
WIRE -864 48 -864 16
WIRE -496 64 -496 48
WIRE 816 64 816 48
WIRE 1248 64 1248 32
WIRE 1248 64 1216 64
WIRE 1248 80 1248 64
WIRE 1360 80 1360 32
WIRE 1472 80 1472 48
WIRE -608 128 -608 -64
WIRE -416 128 -608 128
WIRE -304 128 -336 128
WIRE -256 128 -304 128
WIRE 688 128 656 128
WIRE 736 128 688 128
WIRE 992 128 992 -64
WIRE 992 128 816 128
WIRE -304 144 -304 128
WIRE 688 144 688 128
WIRE -720 224 -720 -64
WIRE -416 224 -720 224
WIRE -304 224 -304 208
WIRE -304 224 -336 224
WIRE -256 224 -304 224
WIRE 688 224 688 208
WIRE 688 224 656 224
WIRE 736 224 688 224
WIRE 1104 224 1104 -64
WIRE 1104 224 816 224
WIRE -768 320 -768 -64
WIRE -736 320 -768 320
WIRE -624 320 -656 320
WIRE -256 320 -624 320
WIRE 1024 320 656 320
WIRE 1056 320 1024 320
WIRE 1168 320 1136 320
WIRE -624 336 -624 320
WIRE 1024 352 1024 320
WIRE -512 416 -560 416
WIRE -416 416 -448 416
WIRE -256 416 -416 416
WIRE 800 416 656 416
WIRE 848 416 800 416
WIRE 928 416 912 416
WIRE -560 432 -560 416
WIRE -416 432 -416 416
WIRE 800 432 800 416
WIRE 928 432 928 416
WIRE -624 448 -624 416
WIRE 1024 448 1024 432
WIRE -320 512 -336 512
WIRE 672 512 656 512
WIRE 752 512 736 512
WIRE -560 528 -560 512
WIRE -416 528 -416 496
WIRE -416 528 -560 528
WIRE 800 528 800 496
WIRE 928 528 928 512
WIRE 928 528 800 528
WIRE -560 544 -560 528
WIRE 928 544 928 528
WIRE -256 608 -272 608
WIRE -256 704 -288 704
WIRE -288 736 -288 704
WIRE -128 784 -128 768
WIRE -32 784 -32 768
WIRE 160 784 160 768
WIRE 544 784 544 768
WIRE 448 816 448 768
WIRE 1168 816 1168 320
WIRE 1168 816 448 816
WIRE 352 848 352 768
WIRE 1184 848 1184 -64
WIRE 1184 848 352 848
WIRE 256 864 256 768
WIRE 1216 864 1216 64
WIRE 1216 864 256 864
WIRE -32 880 -32 864
FLAG 816 64 0
FLAG 208 -464 0
FLAG 544 784 0
FLAG -128 784 0
FLAG 160 784 0
FLAG -32 880 0
FLAG -496 64 0
FLAG -336 512 0
FLAG -704 -368 IN
FLAG -704 -256 0
FLAG -864 48 0
FLAG -944 48 0
FLAG -1072 48 0
FLAG -560 544 0
FLAG -288 736 0
FLAG -624 448 0
FLAG 1248 80 0
FLAG 1360 80 0
FLAG 1472 80 0
FLAG 1024 448 0
FLAG 752 512 0
FLAG 928 544 0
FLAG -1072 -64 OUT1
FLAG 1472 -64 OUT2
FLAG -608 -256 0
SYMBOL PowerProducts\\LTC3855 208 224 R0
SYMATTR InstName U1
SYMBOL nmos 768 -336 R0
WINDOW 0 59 51 Left 0
WINDOW 3 59 81 Left 0
SYMATTR InstName Q3
SYMATTR Value RJK0305DPB
SYMBOL nmos 768 -48 R0
WINDOW 0 91 60 Right 0
WINDOW 3 208 87 Right 0
SYMATTR InstName Q4
SYMATTR Value RJK0301DPB
SYMBOL ind 848 -48 R270
WINDOW 0 32 56 VTop 0
WINDOW 3 5 56 VBottom 0
SYMATTR InstName L2
SYMATTR Value .4
SYMATTR SpiceLine Rser=0.47m Rpar=5K
SYMBOL cap 192 -448 R0
SYMATTR InstName C1
SYMATTR Value 4.7
SYMBOL cap 672 -144 R0
SYMATTR InstName C2
SYMATTR Value .1
SYMBOL schottky 672 -240 R0
SYMATTR InstName D1
SYMATTR Value CMDSH2-3
SYMATTR Description Diode
SYMATTR Type diode
SYMBOL res -48 768 R0
SYMATTR InstName R6
SYMATTR Value 100K
SYMBOL nmos -448 -336 M0
WINDOW 0 -38 51 Left 0
WINDOW 3 31 107 Right 0
SYMATTR InstName Q1
SYMATTR Value RJK0305DPB
SYMBOL nmos -448 -48 M0
WINDOW 0 -36 57 Left 0
WINDOW 3 -149 103 Left 0
SYMATTR InstName Q2
SYMATTR Value RJK0301DPB
SYMBOL ind -496 -48 M270
WINDOW 0 32 56 VTop 0
WINDOW 3 5 56 VBottom 0
SYMATTR InstName L1
SYMATTR Value .4
SYMATTR SpiceLine Rser=0.47m Rpar=5K
SYMBOL cap -320 -144 R0
SYMATTR InstName C7
SYMATTR Value .1
SYMBOL schottky -288 -240 M0
WINDOW 0 8 0 Right 0
SYMATTR InstName D2
SYMATTR Value CMDSH2-3
SYMATTR Description Diode
SYMATTR Type diode
SYMBOL cap -320 144 R0
SYMATTR InstName C9
SYMATTR Value 1n
SYMBOL res -432 112 M90
WINDOW 0 0 56 VBottom 0
WINDOW 3 32 56 VTop 0
SYMATTR InstName R7
SYMATTR Value 10
SYMBOL cap -256 528 M270
WINDOW 0 32 32 VTop 0
WINDOW 3 0 32 VBottom 0
SYMATTR InstName C11
SYMATTR Value 1n
SYMBOL res -640 320 R0
SYMATTR InstName R14
SYMATTR Value 10K
SYMBOL res -640 304 R90
WINDOW 0 0 56 VBottom 0
WINDOW 3 32 56 VTop 0
SYMATTR InstName R15
SYMATTR Value 20K
SYMBOL voltage -704 -368 R0
SYMATTR InstName V1
SYMATTR Value 12
SYMBOL res -320 208 R90
WINDOW 0 0 56 VBottom 0
WINDOW 3 32 56 VTop 0
SYMATTR InstName R8
SYMATTR Value 10
SYMBOL res -608 -80 R90
WINDOW 0 0 56 VBottom 0
WINDOW 3 32 56 VTop 0
SYMATTR InstName Rsense1
SYMATTR Value 2m
SYMBOL cap -880 -48 R0
SYMATTR InstName Cout2
SYMATTR Value 100
SYMATTR SpiceLine Rser=2m
SYMBOL polcap -960 -48 R0
WINDOW 40 24 82 Left 0
SYMATTR SpiceLine2 m=2
SYMATTR InstName Cout1
SYMATTR Value 330
SYMATTR SpiceLine Rser=9m
SYMBOL res -1088 -64 R0
SYMATTR InstName Rload1
SYMATTR Value 106m
SYMBOL cap -432 432 R0
SYMATTR InstName C10
SYMATTR Value 150p
SYMBOL cap -448 400 R90
WINDOW 0 0 32 VBottom 0
WINDOW 3 32 32 VTop 0
SYMATTR InstName C12
SYMATTR Value 1n
SYMBOL res -576 416 R0
SYMATTR InstName R9
SYMATTR Value 18.2K
SYMBOL cap 672 144 R0
SYMATTR InstName C3
SYMATTR Value 1n
SYMBOL res 832 112 R90
WINDOW 0 0 56 VBottom 0
WINDOW 3 32 56 VTop 0
SYMATTR InstName R1
SYMATTR Value 10
SYMBOL res 832 208 R90
WINDOW 0 0 56 VBottom 0
WINDOW 3 32 56 VTop 0
SYMATTR InstName R2
SYMATTR Value 10
SYMBOL res 1104 -80 R90
WINDOW 0 0 56 VBottom 0
WINDOW 3 32 56 VTop 0
SYMATTR InstName Rsense2
SYMATTR Value 2m
SYMBOL cap 1232 -32 R0
SYMATTR InstName Cout3
SYMATTR Value 100
SYMATTR SpiceLine Rser=2m
SYMBOL polcap 1344 -32 R0
WINDOW 40 24 85 Left 0
SYMATTR SpiceLine2 m=2
SYMATTR InstName C4
SYMATTR Value 330
SYMATTR SpiceLine Rser=9m
SYMBOL res 1456 -48 R0
SYMATTR InstName Rload2
SYMATTR Value 71m
SYMBOL res 1152 304 R90
WINDOW 0 0 56 VBottom 0
WINDOW 3 32 56 VTop 0
SYMATTR InstName R4
SYMATTR Value 10K
SYMBOL res 1040 448 R180
WINDOW 0 -43 61 Left 0
WINDOW 3 -58 32 Left 0
SYMATTR InstName R5
SYMATTR Value 10K
SYMBOL cap 736 496 R90
WINDOW 0 0 32 VBottom 0
WINDOW 3 32 32 VTop 0
SYMATTR InstName C5
SYMATTR Value 1n
SYMBOL cap 784 432 R0
SYMATTR InstName C6
SYMATTR Value 150p
SYMBOL cap 912 400 R90
WINDOW 0 0 32 VBottom 0
WINDOW 3 32 32 VTop 0
SYMATTR InstName C8
SYMATTR Value 1.5n
SYMBOL res 912 416 R0
SYMATTR InstName R10
SYMATTR Value 5.49K
SYMBOL cap -624 -352 R0
WINDOW 40 31 77 Left 0
WINDOW 3 32 50 Left 0
SYMATTR SpiceLine2 m=2
SYMATTR Value 10
SYMATTR InstName C13
SYMATTR SpiceLine Rser=5m
TEXT 1216 936 Left 0 !.tran 750u startup
TEXT 216 -496 Bottom 0 ;LTC3855 - Dual, Multiphase Synchronous DC/DC Controller with Differential Remote Sense\nInput: 4.5V-14V     Outputs: 1.8V @ 17A and 1.2V @ 17A, Fsw = 400kHz
TEXT -1136 96 Left 0 ;1.8V @ 17A
TEXT 1416 120 Left 0 ;1.2V @ 17A
TEXT -448 888 Left 0 ;Notes:\n   In the actual application, a 100 Ohm / 1nF Rsense filter may be required instead of 10 Ohm / 1nF to counter\n   effects of Rsense ESL.  Refer to the datasheet for details.\n \n  If the simulation model is not found please update with the "Sync Release" command from the "Tools" menu.\n  It remains the customer's responsibility to verify proper and reliable operation in the actual application.\n  Component substitution and printed circuit board layout may significantly affect circuit performance or reliability.\n  Contact your local sales representative for assistance. This circuit is distributed to customers only for use with LTC parts.\n  Copyright  2011 Linear Technology Inc. All rights reserved.
