*----------------------------------------------------------------------
* SPICE Netlist Generated by TDK Corporation
* Copyright(C) 2012 TDK Corporation.
* All Rights Reserved.
*----------------------------------------------------------------------
* TDK P/N: C1608X5R1A475K (Multilayer Ceramic Capacitor)
* Property: C=4.7uF
* Size(LxWxT): 1.6x0.8x0.8mm, 0.063x0.031x0.031inches
* Model Type: Simple Model
* Model Generated on Mar. 26, 2012
*----------------------------------------------------------------------
* Software License Agreement:
* 1)This simulation model is being provided solely for informational
*   purposes. Please refer to the specifications of the products in
*   terms of detailed characteristics of such products.
* 2)In no event shall TDK be liable for any loss or damage arising,
*   directly or indirectly, from the use of any information contained
*   in this simulation model, including, but not limited to loss or
*   damages arising from any inaccuracies, omissions or errors in
*   connection with such information.
* 3)Any and all copyrights on this simulation model is owned by TDK
*   Corporation. Duplication or redistribution of this simulation model
*   without prior written permission from TDK Corporation is prohibited.
* 4)This simulation model is subject to any modification or change
*   without any prior notice.
* 5)The use of this simulation model is governed by the terms of the
*   software license agreement.
*
*   http://www.tdk.co.jp/etvcl/readme.htm
*----------------------------------------------------------------------
* External Node Assignments:
*
*  1 ---| |--- 2
*
*----------------------------------------------------------------------
* Applicable Conditions:
*   Temperature = 25 degC
*   DC Bias Voltage = 0 V
*   Small Signal Operation
*----------------------------------------------------------------------
.SUBCKT C1608X5R1A475K_s 1 2
C1 1 11 4.70000000E-06
L1 2 12 4.20000000E-10
R1 11 12 3.80511499E-03
R2 1 11 1.30000000E+09
.ENDS C1608X5R1A475K_s
*----------------------------------------------------------------------
