*----------------------------------------------------------------------
* SPICE Netlist Generated by TDK Corporation
* Copyright(C) 2012 TDK Corporation.
* All Rights Reserved.
*----------------------------------------------------------------------
* TDK P/N: MPZ1608D101B (Chip Bead)
* Property: |Z|=100ohm at 100MHz
* Size(LxWxT): 1.6x0.8x0.8mm, 0.063x0.031x0.031inches
* Model Type: Simple Model
* Model Generated on Mar. 26, 2012
*----------------------------------------------------------------------
* Software License Agreement:
* 1)This simulation model is being provided solely for informational
*   purposes. Please refer to the specifications of the products in
*   terms of detailed characteristics of such products.
* 2)In no event shall TDK be liable for any loss or damage arising,
*   directly or indirectly, from the use of any information contained
*   in this simulation model, including, but not limited to loss or
*   damages arising from any inaccuracies, omissions or errors in
*   connection with such information.
* 3)Any and all copyrights on this simulation model is owned by TDK
*   Corporation. Duplication or redistribution of this simulation model
*   without prior written permission from TDK Corporation is prohibited.
* 4)This simulation model is subject to any modification or change
*   without any prior notice.
* 5)The use of this simulation model is governed by the terms of the
*   software license agreement.
*
*   http://www.tdk.co.jp/etvcl/readme.htm
*----------------------------------------------------------------------
* External Node Assignments:
*
*  1 ---@@@--- 2
*
*----------------------------------------------------------------------
* Applicable Conditions:
*   Temperature = 25 degC
*   DC Bias Current = 0 A
*   Small Signal Operation
*----------------------------------------------------------------------
.SUBCKT MPZ1608D101B_s 1 2
C1 1 11 4.00000000E-13
L1 1 11 1.40000000E-07
R1 1 11 6.00000000E+02
R2 2 11 1.20000000E-01
.ENDS MPZ1608D101B_s
*----------------------------------------------------------------------
