*----------------------------------------------------------------------
* SPICE Netlist Generated by TDK Corporation
* Copyright(C) 2012 TDK Corporation.
* All Rights Reserved.
*----------------------------------------------------------------------
* TDK P/N: MPZ1005S121C (Chip Bead)
* Property: |Z|=120ohm at 100MHz
* Size(LxWxT): 1x0.5x0.5mm, 0.039x0.02x0.02inches
* Model Type: Simple Model
* Model Generated on Mar. 26, 2012
*----------------------------------------------------------------------
* Software License Agreement:
* 1)This simulation model is being provided solely for informational
*   purposes. Please refer to the specifications of the products in
*   terms of detailed characteristics of such products.
* 2)In no event shall TDK be liable for any loss or damage arising,
*   directly or indirectly, from the use of any information contained
*   in this simulation model, including, but not limited to loss or
*   damages arising from any inaccuracies, omissions or errors in
*   connection with such information.
* 3)Any and all copyrights on this simulation model is owned by TDK
*   Corporation. Duplication or redistribution of this simulation model
*   without prior written permission from TDK Corporation is prohibited.
* 4)This simulation model is subject to any modification or change
*   without any prior notice.
* 5)The use of this simulation model is governed by the terms of the
*   software license agreement.
*
*   http://www.tdk.co.jp/etvcl/readme.htm
*----------------------------------------------------------------------
* External Node Assignments:
*
*  1 ---@@@--- 2
*
*----------------------------------------------------------------------
* Applicable Conditions:
*   Temperature = 25 degC
*   DC Bias Current = 0 A
*   Small Signal Operation
*----------------------------------------------------------------------
.SUBCKT MPZ1005S121C_s 1 2
C1 1 11 2.00000000E-13
L1 1 11 3.50000000E-07
R1 1 11 1.50000000E+02
R2 2 11 7.00000000E-02
.ENDS MPZ1005S121C_s
*----------------------------------------------------------------------
